New Load.LOAD1 Phases=1 Bus1=1233.1.4 kV=0.23 kW=1 PF=0.95  daily=Shape_1
New Load.LOAD2 Phases=1 Bus1=1259.3.4 kV=0.23 kW=1 PF=0.95  daily=Shape_2
New Load.LOAD3 Phases=1 Bus1=1270.2.4 kV=0.23 kW=1 PF=0.95  daily=Shape_3
New Load.LOAD4 Phases=1 Bus1=1252.2.4 kV=0.23 kW=1 PF=0.95  daily=Shape_4
New Load.LOAD5 Phases=1 Bus1=1267.3.4 kV=0.23 kW=1 PF=0.95  daily=Shape_5
New Load.LOAD6 Phases=1 Bus1=1267.3.4 kV=0.23 kW=1 PF=0.95  daily=Shape_6
New Load.LOAD7 Phases=3 Bus1=1240.1.2.3.4 kV=0.4 kW=1 PF=0.95  daily=Shape_7
New Load.LOAD8 Phases=1 Bus1=1222.2.4 kV=0.23 kW=1 PF=0.95  daily=Shape_8
New Load.LOAD9 Phases=1 Bus1=1220.3.4 kV=0.23 kW=1 PF=0.95  daily=Shape_9
New Load.LOAD10 Phases=1 Bus1=1244.2.4 kV=0.23 kW=1 PF=0.95  daily=Shape_10
New Load.LOAD11 Phases=1 Bus1=1257.3.4 kV=0.23 kW=1 PF=0.95  daily=Shape_11
New Load.LOAD12 Phases=1 Bus1=1247.3.4 kV=0.23 kW=1 PF=0.95  daily=Shape_12
New Load.LOAD13 Phases=1 Bus1=1247.2.4 kV=0.23 kW=1 PF=0.95  daily=Shape_13
New Load.LOAD14 Phases=1 Bus1=1247.3.4 kV=0.23 kW=1 PF=0.95  daily=Shape_14
New Load.LOAD15 Phases=1 Bus1=1247.2.4 kV=0.23 kW=1 PF=0.95  daily=Shape_15
New Load.LOAD16 Phases=1 Bus1=1247.3.4 kV=0.23 kW=1 PF=0.95  daily=Shape_16
New Load.LOAD17 Phases=1 Bus1=1247.1.4 kV=0.23 kW=1 PF=0.95  daily=Shape_17
New Load.LOAD18 Phases=1 Bus1=1247.1.4 kV=0.23 kW=1 PF=0.95  daily=Shape_18
New Load.LOAD19 Phases=1 Bus1=1247.3.4 kV=0.23 kW=1 PF=0.95  daily=Shape_19
New Load.LOAD20 Phases=1 Bus1=1247.2.4 kV=0.23 kW=1 PF=0.95  daily=Shape_20
New Load.LOAD21 Phases=1 Bus1=1247.2.4 kV=0.23 kW=1 PF=0.95  daily=Shape_21
New Load.LOAD22 Phases=1 Bus1=1260.3.4 kV=0.23 kW=1 PF=0.95  daily=Shape_22
New Load.LOAD23 Phases=1 Bus1=1247.3.4 kV=0.23 kW=1 PF=0.95  daily=Shape_23
New Load.LOAD24 Phases=1 Bus1=1247.1.4 kV=0.23 kW=1 PF=0.95  daily=Shape_24
New Load.LOAD25 Phases=1 Bus1=1247.1.4 kV=0.23 kW=1 PF=0.95  daily=Shape_25
New Load.LOAD26 Phases=1 Bus1=1220.1.4 kV=0.23 kW=1 PF=0.95  daily=Shape_26
New Load.LOAD27 Phases=1 Bus1=1220.2.4 kV=0.23 kW=1 PF=0.95  daily=Shape_27
New Load.LOAD28 Phases=1 Bus1=1220.2.4 kV=0.23 kW=1 PF=0.95  daily=Shape_28
New Load.LOAD29 Phases=1 Bus1=1220.3.4 kV=0.23 kW=1 PF=0.95  daily=Shape_29
New Load.LOAD30 Phases=1 Bus1=1220.3.4 kV=0.23 kW=1 PF=0.95  daily=Shape_30
New Load.LOAD31 Phases=1 Bus1=1220.1.4 kV=0.23 kW=1 PF=0.95  daily=Shape_31
New Load.LOAD32 Phases=1 Bus1=1220.3.4 kV=0.23 kW=1 PF=0.95  daily=Shape_32
New Load.LOAD33 Phases=1 Bus1=1220.1.4 kV=0.23 kW=1 PF=0.95  daily=Shape_33
New Load.LOAD34 Phases=1 Bus1=1220.2.4 kV=0.23 kW=1 PF=0.95  daily=Shape_34
New Load.LOAD35 Phases=1 Bus1=1220.1.4 kV=0.23 kW=1 PF=0.95  daily=Shape_35
New Load.LOAD36 Phases=1 Bus1=1220.3.4 kV=0.23 kW=1 PF=0.95  daily=Shape_36
New Load.LOAD37 Phases=1 Bus1=1220.2.4 kV=0.23 kW=1 PF=0.95  daily=Shape_37
New Load.LOAD38 Phases=1 Bus1=1257.1.4 kV=0.23 kW=1 PF=0.95  daily=Shape_38
New Load.LOAD39 Phases=1 Bus1=1257.2.4 kV=0.23 kW=1 PF=0.95  daily=Shape_39
New Load.LOAD40 Phases=1 Bus1=1257.2.4 kV=0.23 kW=1 PF=0.95  daily=Shape_40
New Load.LOAD41 Phases=1 Bus1=1257.2.4 kV=0.23 kW=1 PF=0.95  daily=Shape_41
New Load.LOAD42 Phases=1 Bus1=1257.3.4 kV=0.23 kW=1 PF=0.95  daily=Shape_42
New Load.LOAD43 Phases=1 Bus1=1257.1.4 kV=0.23 kW=1 PF=0.95  daily=Shape_43
New Load.LOAD44 Phases=1 Bus1=1257.2.4 kV=0.23 kW=1 PF=0.95  daily=Shape_44
New Load.LOAD45 Phases=1 Bus1=1242.3.4 kV=0.23 kW=1 PF=0.95  daily=Shape_45
New Load.LOAD46 Phases=1 Bus1=1242.3.4 kV=0.23 kW=1 PF=0.95  daily=Shape_46
New Load.LOAD47 Phases=1 Bus1=1269.1.4 kV=0.23 kW=1 PF=0.95  daily=Shape_47
New Load.LOAD48 Phases=1 Bus1=1269.3.4 kV=0.23 kW=1 PF=0.95  daily=Shape_48
New Load.LOAD49 Phases=1 Bus1=1269.3.4 kV=0.23 kW=1 PF=0.95  daily=Shape_49
New Load.LOAD50 Phases=1 Bus1=1269.2.4 kV=0.23 kW=1 PF=0.95  daily=Shape_50
New Load.LOAD51 Phases=1 Bus1=1269.1.4 kV=0.23 kW=1 PF=0.95  daily=Shape_51
New Load.LOAD52 Phases=1 Bus1=1269.3.4 kV=0.23 kW=1 PF=0.95  daily=Shape_52
New Load.LOAD53 Phases=1 Bus1=1269.2.4 kV=0.23 kW=1 PF=0.95  daily=Shape_53
New Load.LOAD54 Phases=1 Bus1=1269.3.4 kV=0.23 kW=1 PF=0.95  daily=Shape_54
New Load.LOAD55 Phases=1 Bus1=1242.3.4 kV=0.23 kW=1 PF=0.95  daily=Shape_55
New Load.LOAD56 Phases=1 Bus1=1242.1.4 kV=0.23 kW=1 PF=0.95  daily=Shape_56
New Load.LOAD57 Phases=1 Bus1=1242.3.4 kV=0.23 kW=1 PF=0.95  daily=Shape_57
New Load.LOAD58 Phases=1 Bus1=1240.3.4 kV=0.23 kW=1 PF=0.95  daily=Shape_58
New Load.LOAD59 Phases=1 Bus1=1242.1.4 kV=0.23 kW=1 PF=0.95  daily=Shape_59
New Load.LOAD60 Phases=1 Bus1=1242.2.4 kV=0.23 kW=1 PF=0.95  daily=Shape_60
New Load.LOAD61 Phases=1 Bus1=1242.1.4 kV=0.23 kW=1 PF=0.95  daily=Shape_61
New Load.LOAD62 Phases=1 Bus1=1242.2.4 kV=0.23 kW=1 PF=0.95  daily=Shape_62
New Load.LOAD63 Phases=1 Bus1=1243.1.4 kV=0.23 kW=1 PF=0.95  daily=Shape_63
New Load.LOAD64 Phases=1 Bus1=1269.2.4 kV=0.23 kW=1 PF=0.95  daily=Shape_64
New Load.LOAD65 Phases=1 Bus1=1269.2.4 kV=0.23 kW=1 PF=0.95  daily=Shape_65
New Load.LOAD66 Phases=1 Bus1=1269.2.4 kV=0.23 kW=1 PF=0.95  daily=Shape_66
New Load.LOAD67 Phases=1 Bus1=1269.2.4 kV=0.23 kW=1 PF=0.95  daily=Shape_67
New Load.LOAD68 Phases=1 Bus1=1269.1.4 kV=0.23 kW=1 PF=0.95  daily=Shape_68
New Load.LOAD69 Phases=1 Bus1=1269.3.4 kV=0.23 kW=1 PF=0.95  daily=Shape_69
New Load.LOAD70 Phases=1 Bus1=1269.1.4 kV=0.23 kW=1 PF=0.95  daily=Shape_70
New Load.LOAD71 Phases=1 Bus1=1269.1.4 kV=0.23 kW=1 PF=0.95  daily=Shape_71
New Load.LOAD72 Phases=1 Bus1=1269.3.4 kV=0.23 kW=1 PF=0.95  daily=Shape_72
New Load.LOAD73 Phases=1 Bus1=1269.2.4 kV=0.23 kW=1 PF=0.95  daily=Shape_73
New Load.LOAD74 Phases=1 Bus1=1240.1.4 kV=0.23 kW=1 PF=0.95  daily=Shape_74
New Load.LOAD75 Phases=1 Bus1=1256.3.4 kV=0.23 kW=1 PF=0.95  daily=Shape_75
New Load.LOAD76 Phases=1 Bus1=1256.2.4 kV=0.23 kW=1 PF=0.95  daily=Shape_76
New Load.LOAD77 Phases=1 Bus1=1256.3.4 kV=0.23 kW=1 PF=0.95  daily=Shape_77
New Load.LOAD78 Phases=1 Bus1=1256.3.4 kV=0.23 kW=1 PF=0.95  daily=Shape_78
New Load.LOAD79 Phases=1 Bus1=1273.2.4 kV=0.23 kW=1 PF=0.95  daily=Shape_79
New Load.LOAD80 Phases=1 Bus1=1273.2.4 kV=0.23 kW=1 PF=0.95  daily=Shape_80
New Load.LOAD81 Phases=1 Bus1=1273.2.4 kV=0.23 kW=1 PF=0.95  daily=Shape_81
New Load.LOAD82 Phases=1 Bus1=1273.3.4 kV=0.23 kW=1 PF=0.95  daily=Shape_82
New Load.LOAD83 Phases=1 Bus1=1273.3.4 kV=0.23 kW=1 PF=0.95  daily=Shape_83
New Load.LOAD84 Phases=1 Bus1=1273.3.4 kV=0.23 kW=1 PF=0.95  daily=Shape_84
New Load.LOAD85 Phases=1 Bus1=1273.3.4 kV=0.23 kW=1 PF=0.95  daily=Shape_85
New Load.LOAD86 Phases=1 Bus1=1273.2.4 kV=0.23 kW=1 PF=0.95  daily=Shape_86
New Load.LOAD87 Phases=1 Bus1=1273.2.4 kV=0.23 kW=1 PF=0.95  daily=Shape_87
New Load.LOAD88 Phases=1 Bus1=1273.2.4 kV=0.23 kW=1 PF=0.95  daily=Shape_88
New Load.LOAD89 Phases=1 Bus1=1255.3.4 kV=0.23 kW=1 PF=0.95  daily=Shape_89
New Load.LOAD90 Phases=1 Bus1=1255.1.4 kV=0.23 kW=1 PF=0.95  daily=Shape_90
New Load.LOAD91 Phases=1 Bus1=1255.2.4 kV=0.23 kW=1 PF=0.95  daily=Shape_91
New Load.LOAD92 Phases=1 Bus1=1255.3.4 kV=0.23 kW=1 PF=0.95  daily=Shape_92
New Load.LOAD93 Phases=1 Bus1=1255.3.4 kV=0.23 kW=1 PF=0.95  daily=Shape_93
New Load.LOAD94 Phases=1 Bus1=1255.2.4 kV=0.23 kW=1 PF=0.95  daily=Shape_94
New Load.LOAD95 Phases=1 Bus1=1255.1.4 kV=0.23 kW=1 PF=0.95  daily=Shape_95
New Load.LOAD96 Phases=1 Bus1=1255.1.4 kV=0.23 kW=1 PF=0.95  daily=Shape_96
New Load.LOAD97 Phases=1 Bus1=1255.1.4 kV=0.23 kW=1 PF=0.95  daily=Shape_97
New Load.LOAD98 Phases=1 Bus1=1244.3.4 kV=0.23 kW=1 PF=0.95  daily=Shape_98
New Load.LOAD99 Phases=1 Bus1=1244.2.4 kV=0.23 kW=1 PF=0.95  daily=Shape_99
New Load.LOAD100 Phases=1 Bus1=1244.2.4 kV=0.23 kW=1 PF=0.95  daily=Shape_100
New Load.LOAD101 Phases=1 Bus1=1244.3.4 kV=0.23 kW=1 PF=0.95  daily=Shape_101
New Load.LOAD102 Phases=1 Bus1=1240.1.4 kV=0.23 kW=1 PF=0.95  daily=Shape_102
New Load.LOAD103 Phases=1 Bus1=1240.1.4 kV=0.23 kW=1 PF=0.95  daily=Shape_103
New Load.LOAD104 Phases=1 Bus1=1240.2.4 kV=0.23 kW=1 PF=0.95  daily=Shape_104
New Load.LOAD105 Phases=1 Bus1=1240.3.4 kV=0.23 kW=1 PF=0.95  daily=Shape_105
New Load.LOAD106 Phases=1 Bus1=1240.1.4 kV=0.23 kW=1 PF=0.95  daily=Shape_106
New Load.LOAD107 Phases=1 Bus1=1240.3.4 kV=0.23 kW=1 PF=0.95  daily=Shape_107
New Load.LOAD108 Phases=1 Bus1=1240.2.4 kV=0.23 kW=1 PF=0.95  daily=Shape_108
New Load.LOAD109 Phases=1 Bus1=1240.3.4 kV=0.23 kW=1 PF=0.95  daily=Shape_109
New Load.LOAD110 Phases=1 Bus1=1240.3.4 kV=0.23 kW=1 PF=0.95  daily=Shape_110
New Load.LOAD111 Phases=1 Bus1=1240.2.4 kV=0.23 kW=1 PF=0.95  daily=Shape_111
New Load.LOAD112 Phases=1 Bus1=1244.3.4 kV=0.23 kW=1 PF=0.95  daily=Shape_112
New Load.LOAD113 Phases=1 Bus1=1244.1.4 kV=0.23 kW=1 PF=0.95  daily=Shape_113
New Load.LOAD114 Phases=1 Bus1=1244.2.4 kV=0.23 kW=1 PF=0.95  daily=Shape_114
New Load.LOAD115 Phases=1 Bus1=1242.2.4 kV=0.23 kW=1 PF=0.95  daily=Shape_115
New Load.LOAD116 Phases=1 Bus1=1244.2.4 kV=0.23 kW=1 PF=0.95  daily=Shape_116
New Load.LOAD117 Phases=1 Bus1=1242.2.4 kV=0.23 kW=1 PF=0.95  daily=Shape_117
New Load.LOAD118 Phases=1 Bus1=1242.3.4 kV=0.23 kW=1 PF=0.95  daily=Shape_118
New Load.LOAD119 Phases=1 Bus1=1242.1.4 kV=0.23 kW=1 PF=0.95  daily=Shape_119
New Load.LOAD120 Phases=1 Bus1=1242.2.4 kV=0.23 kW=1 PF=0.95  daily=Shape_120
New Load.LOAD121 Phases=1 Bus1=1242.3.4 kV=0.23 kW=1 PF=0.95  daily=Shape_121
New Load.LOAD122 Phases=1 Bus1=1242.2.4 kV=0.23 kW=1 PF=0.95  daily=Shape_122
New Load.LOAD123 Phases=1 Bus1=1242.2.4 kV=0.23 kW=1 PF=0.95  daily=Shape_123
New Load.LOAD124 Phases=1 Bus1=1242.1.4 kV=0.23 kW=1 PF=0.95  daily=Shape_124
New Load.LOAD125 Phases=1 Bus1=1242.3.4 kV=0.23 kW=1 PF=0.95  daily=Shape_125
New Load.LOAD126 Phases=1 Bus1=1242.1.4 kV=0.23 kW=1 PF=0.95  daily=Shape_126
New Load.LOAD127 Phases=1 Bus1=1242.3.4 kV=0.23 kW=1 PF=0.95  daily=Shape_127
New Load.LOAD128 Phases=1 Bus1=1243.2.4 kV=0.23 kW=1 PF=0.95  daily=Shape_128
New Load.LOAD129 Phases=1 Bus1=1243.1.4 kV=0.23 kW=1 PF=0.95  daily=Shape_129
New Load.LOAD130 Phases=1 Bus1=1243.2.4 kV=0.23 kW=1 PF=0.95  daily=Shape_130
New Load.LOAD131 Phases=1 Bus1=1243.3.4 kV=0.23 kW=1 PF=0.95  daily=Shape_131
New Load.LOAD132 Phases=1 Bus1=1243.3.4 kV=0.23 kW=1 PF=0.95  daily=Shape_132
New Load.LOAD133 Phases=1 Bus1=1236.1.4 kV=0.23 kW=1 PF=0.95  daily=Shape_133
New Load.LOAD134 Phases=1 Bus1=1243.2.4 kV=0.23 kW=1 PF=0.95  daily=Shape_134
New Load.LOAD135 Phases=1 Bus1=1243.1.4 kV=0.23 kW=1 PF=0.95  daily=Shape_135
New Load.LOAD136 Phases=1 Bus1=1243.3.4 kV=0.23 kW=1 PF=0.95  daily=Shape_136
New Load.LOAD137 Phases=1 Bus1=1243.1.4 kV=0.23 kW=1 PF=0.95  daily=Shape_137
New Load.LOAD138 Phases=1 Bus1=1240.3.4 kV=0.23 kW=1 PF=0.95  daily=Shape_138
New Load.LOAD139 Phases=1 Bus1=1240.2.4 kV=0.23 kW=1 PF=0.95  daily=Shape_139
New Load.LOAD140 Phases=1 Bus1=1240.1.4 kV=0.23 kW=1 PF=0.95  daily=Shape_140
New Load.LOAD141 Phases=1 Bus1=1240.2.4 kV=0.23 kW=1 PF=0.95  daily=Shape_141
New Load.LOAD142 Phases=1 Bus1=1240.2.4 kV=0.23 kW=1 PF=0.95  daily=Shape_142
New Load.LOAD143 Phases=1 Bus1=1240.3.4 kV=0.23 kW=1 PF=0.95  daily=Shape_143
New Load.LOAD144 Phases=1 Bus1=1240.3.4 kV=0.23 kW=1 PF=0.95  daily=Shape_144
New Load.LOAD145 Phases=1 Bus1=1240.1.4 kV=0.23 kW=1 PF=0.95  daily=Shape_145
New Load.LOAD146 Phases=1 Bus1=1240.1.4 kV=0.23 kW=1 PF=0.95  daily=Shape_146
New Load.LOAD147 Phases=1 Bus1=1240.2.4 kV=0.23 kW=1 PF=0.95  daily=Shape_147
New Load.LOAD148 Phases=1 Bus1=1240.2.4 kV=0.23 kW=1 PF=0.95  daily=Shape_148
New Load.LOAD149 Phases=1 Bus1=1240.3.4 kV=0.23 kW=1 PF=0.95  daily=Shape_149
New Load.LOAD150 Phases=1 Bus1=1233.1.4 kV=0.23 kW=1 PF=0.95  daily=Shape_150
New Load.LOAD151 Phases=1 Bus1=1233.3.4 kV=0.23 kW=1 PF=0.95  daily=Shape_151
New Load.LOAD152 Phases=1 Bus1=1233.3.4 kV=0.23 kW=1 PF=0.95  daily=Shape_152
!New Load.LOAD153 Phases=1 Bus1=0.3.4 kV=0.4 kW=1 PF=0.95  daily=Shape_153
New Load.LOAD154 Phases=1 Bus1=1233.3.4 kV=0.23 kW=1 PF=0.95  daily=Shape_154
New Load.LOAD155 Phases=1 Bus1=1233.2.4 kV=0.23 kW=1 PF=0.95  daily=Shape_155
New Load.LOAD156 Phases=1 Bus1=1233.3.4 kV=0.23 kW=1 PF=0.95  daily=Shape_156
New Load.LOAD157 Phases=1 Bus1=1233.2.4 kV=0.23 kW=1 PF=0.95  daily=Shape_157
New Load.LOAD158 Phases=1 Bus1=1233.1.4 kV=0.23 kW=1 PF=0.95  daily=Shape_158
New Load.LOAD159 Phases=1 Bus1=1233.1.4 kV=0.23 kW=1 PF=0.95  daily=Shape_159
New Load.LOAD160 Phases=1 Bus1=1236.1.4 kV=0.23 kW=1 PF=0.95  daily=Shape_160
New Load.LOAD161 Phases=1 Bus1=1236.2.4 kV=0.23 kW=1 PF=0.95  daily=Shape_161
New Load.LOAD162 Phases=1 Bus1=1236.3.4 kV=0.23 kW=1 PF=0.95  daily=Shape_162
New Load.LOAD163 Phases=1 Bus1=1236.1.4 kV=0.23 kW=1 PF=0.95  daily=Shape_163
New Load.LOAD164 Phases=1 Bus1=1236.2.4 kV=0.23 kW=1 PF=0.95  daily=Shape_164
New Load.LOAD165 Phases=1 Bus1=1236.3.4 kV=0.23 kW=1 PF=0.95  daily=Shape_165
New Load.LOAD166 Phases=1 Bus1=1236.2.4 kV=0.23 kW=1 PF=0.95  daily=Shape_166
New Load.LOAD167 Phases=1 Bus1=1236.3.4 kV=0.23 kW=1 PF=0.95  daily=Shape_167
New Load.LOAD168 Phases=1 Bus1=1236.2.4 kV=0.23 kW=1 PF=0.95  daily=Shape_168
New Load.LOAD169 Phases=1 Bus1=1236.2.4 kV=0.23 kW=1 PF=0.95  daily=Shape_169
New Load.LOAD170 Phases=1 Bus1=1220.1.4 kV=0.23 kW=1 PF=0.95  daily=Shape_170
New Load.LOAD171 Phases=1 Bus1=1233.3.4 kV=0.23 kW=1 PF=0.95  daily=Shape_171
New Load.LOAD172 Phases=1 Bus1=1233.3.4 kV=0.23 kW=1 PF=0.95  daily=Shape_172
New Load.LOAD173 Phases=1 Bus1=1233.1.4 kV=0.23 kW=1 PF=0.95  daily=Shape_173
New Load.LOAD174 Phases=1 Bus1=1233.2.4 kV=0.23 kW=1 PF=0.95  daily=Shape_174
New Load.LOAD175 Phases=1 Bus1=1233.1.4 kV=0.23 kW=1 PF=0.95  daily=Shape_175
New Load.LOAD176 Phases=1 Bus1=1233.1.4 kV=0.23 kW=1 PF=0.95  daily=Shape_176
New Load.LOAD177 Phases=1 Bus1=1233.2.4 kV=0.23 kW=1 PF=0.95  daily=Shape_177
New Load.LOAD178 Phases=1 Bus1=1258.1.4 kV=0.23 kW=1 PF=0.95  daily=Shape_178
New Load.LOAD179 Phases=1 Bus1=1258.2.4 kV=0.23 kW=1 PF=0.95  daily=Shape_179
New Load.LOAD180 Phases=1 Bus1=1258.2.4 kV=0.23 kW=1 PF=0.95  daily=Shape_180
New Load.LOAD181 Phases=1 Bus1=1258.2.4 kV=0.23 kW=1 PF=0.95  daily=Shape_181
New Load.LOAD182 Phases=1 Bus1=1258.3.4 kV=0.23 kW=1 PF=0.95  daily=Shape_182
New Load.LOAD183 Phases=1 Bus1=1258.2.4 kV=0.23 kW=1 PF=0.95  daily=Shape_183
New Load.LOAD184 Phases=1 Bus1=1258.3.4 kV=0.23 kW=1 PF=0.95  daily=Shape_184
New Load.LOAD185 Phases=1 Bus1=1258.1.4 kV=0.23 kW=1 PF=0.95  daily=Shape_185
New Load.LOAD186 Phases=1 Bus1=1258.3.4 kV=0.23 kW=1 PF=0.95  daily=Shape_186
New Load.LOAD187 Phases=1 Bus1=1258.3.4 kV=0.23 kW=1 PF=0.95  daily=Shape_187
New Load.LOAD188 Phases=1 Bus1=1258.1.4 kV=0.23 kW=1 PF=0.95  daily=Shape_188
New Load.LOAD189 Phases=1 Bus1=1258.2.4 kV=0.23 kW=1 PF=0.95  daily=Shape_189
New Load.LOAD190 Phases=1 Bus1=1260.1.4 kV=0.23 kW=1 PF=0.95  daily=Shape_190
New Load.LOAD191 Phases=1 Bus1=1258.2.4 kV=0.23 kW=1 PF=0.95  daily=Shape_191
New Load.LOAD192 Phases=1 Bus1=1258.1.4 kV=0.23 kW=1 PF=0.95  daily=Shape_192
New Load.LOAD193 Phases=1 Bus1=1260.1.4 kV=0.23 kW=1 PF=0.95  daily=Shape_193
New Load.LOAD194 Phases=1 Bus1=1258.1.4 kV=0.23 kW=1 PF=0.95  daily=Shape_194
New Load.LOAD195 Phases=1 Bus1=1258.2.4 kV=0.23 kW=1 PF=0.95  daily=Shape_195
New Load.LOAD196 Phases=1 Bus1=1258.3.4 kV=0.23 kW=1 PF=0.95  daily=Shape_196
New Load.LOAD197 Phases=1 Bus1=1259.2.4 kV=0.23 kW=1 PF=0.95  daily=Shape_197
New Load.LOAD198 Phases=1 Bus1=1259.3.4 kV=0.23 kW=1 PF=0.95  daily=Shape_198
New Load.LOAD199 Phases=1 Bus1=1259.1.4 kV=0.23 kW=1 PF=0.95  daily=Shape_199
New Load.LOAD200 Phases=1 Bus1=1259.2.4 kV=0.23 kW=1 PF=0.95  daily=Shape_200
New Load.LOAD201 Phases=1 Bus1=1259.1.4 kV=0.23 kW=1 PF=0.95  daily=Shape_201
New Load.LOAD202 Phases=1 Bus1=1259.3.4 kV=0.23 kW=1 PF=0.95  daily=Shape_202
New Load.LOAD203 Phases=1 Bus1=1259.2.4 kV=0.23 kW=1 PF=0.95  daily=Shape_203
New Load.LOAD204 Phases=1 Bus1=1263.2.4 kV=0.23 kW=1 PF=0.95  daily=Shape_204
New Load.LOAD205 Phases=1 Bus1=1263.1.4 kV=0.23 kW=1 PF=0.95  daily=Shape_205
New Load.LOAD206 Phases=1 Bus1=1263.1.4 kV=0.23 kW=1 PF=0.95  daily=Shape_206
New Load.LOAD207 Phases=1 Bus1=1263.2.4 kV=0.23 kW=1 PF=0.95  daily=Shape_207
New Load.LOAD208 Phases=1 Bus1=1263.3.4 kV=0.23 kW=1 PF=0.95  daily=Shape_208
New Load.LOAD209 Phases=1 Bus1=1263.1.4 kV=0.23 kW=1 PF=0.95  daily=Shape_209
New Load.LOAD210 Phases=1 Bus1=1263.1.4 kV=0.23 kW=1 PF=0.95  daily=Shape_210
New Load.LOAD211 Phases=1 Bus1=1263.2.4 kV=0.23 kW=1 PF=0.95  daily=Shape_211
New Load.LOAD212 Phases=1 Bus1=1263.2.4 kV=0.23 kW=1 PF=0.95  daily=Shape_212
New Load.LOAD213 Phases=1 Bus1=1263.3.4 kV=0.23 kW=1 PF=0.95  daily=Shape_213
New Load.LOAD214 Phases=1 Bus1=1252.2.4 kV=0.23 kW=1 PF=0.95  daily=Shape_214
New Load.LOAD215 Phases=1 Bus1=1252.1.4 kV=0.23 kW=1 PF=0.95  daily=Shape_215
New Load.LOAD216 Phases=1 Bus1=1255.3.4 kV=0.23 kW=1 PF=0.95  daily=Shape_216
New Load.LOAD217 Phases=1 Bus1=1255.3.4 kV=0.23 kW=1 PF=0.95  daily=Shape_217
New Load.LOAD218 Phases=1 Bus1=1255.2.4 kV=0.23 kW=1 PF=0.95  daily=Shape_218
New Load.LOAD219 Phases=1 Bus1=1255.1.4 kV=0.23 kW=1 PF=0.95  daily=Shape_219
New Load.LOAD220 Phases=1 Bus1=1255.2.4 kV=0.23 kW=1 PF=0.95  daily=Shape_220
New Load.LOAD221 Phases=1 Bus1=1255.3.4 kV=0.23 kW=1 PF=0.95  daily=Shape_221
New Load.LOAD222 Phases=1 Bus1=1255.1.4 kV=0.23 kW=1 PF=0.95  daily=Shape_222
New Load.LOAD223 Phases=1 Bus1=1255.2.4 kV=0.23 kW=1 PF=0.95  daily=Shape_223
New Load.LOAD224 Phases=1 Bus1=1255.3.4 kV=0.23 kW=1 PF=0.95  daily=Shape_224
New Load.LOAD225 Phases=1 Bus1=1255.2.4 kV=0.23 kW=1 PF=0.95  daily=Shape_225
New Load.LOAD226 Phases=1 Bus1=1259.3.4 kV=0.23 kW=1 PF=0.95  daily=Shape_226
New Load.LOAD227 Phases=1 Bus1=1259.1.4 kV=0.23 kW=1 PF=0.95  daily=Shape_227
New Load.LOAD228 Phases=1 Bus1=1259.2.4 kV=0.23 kW=1 PF=0.95  daily=Shape_228
New Load.LOAD229 Phases=1 Bus1=1259.3.4 kV=0.23 kW=1 PF=0.95  daily=Shape_229
New Load.LOAD230 Phases=1 Bus1=1259.3.4 kV=0.23 kW=1 PF=0.95  daily=Shape_230
New Load.LOAD231 Phases=1 Bus1=1259.1.4 kV=0.23 kW=1 PF=0.95  daily=Shape_231
New Load.LOAD232 Phases=1 Bus1=1259.1.4 kV=0.23 kW=1 PF=0.95  daily=Shape_232
New Load.LOAD233 Phases=1 Bus1=1259.2.4 kV=0.23 kW=1 PF=0.95  daily=Shape_233
New Load.LOAD234 Phases=1 Bus1=1259.3.4 kV=0.23 kW=1 PF=0.95  daily=Shape_234
New Load.LOAD235 Phases=1 Bus1=1259.3.4 kV=0.23 kW=1 PF=0.95  daily=Shape_235
New Load.LOAD236 Phases=1 Bus1=1273.1.4 kV=0.23 kW=1 PF=0.95  daily=Shape_236
New Load.LOAD237 Phases=1 Bus1=1273.1.4 kV=0.23 kW=1 PF=0.95  daily=Shape_237
New Load.LOAD238 Phases=1 Bus1=1273.2.4 kV=0.23 kW=1 PF=0.95  daily=Shape_238
New Load.LOAD239 Phases=1 Bus1=1273.1.4 kV=0.23 kW=1 PF=0.95  daily=Shape_239
New Load.LOAD240 Phases=1 Bus1=1273.3.4 kV=0.23 kW=1 PF=0.95  daily=Shape_240
New Load.LOAD241 Phases=1 Bus1=1273.3.4 kV=0.23 kW=1 PF=0.95  daily=Shape_241
New Load.LOAD242 Phases=1 Bus1=1273.1.4 kV=0.23 kW=1 PF=0.95  daily=Shape_242
New Load.LOAD243 Phases=1 Bus1=1273.2.4 kV=0.23 kW=1 PF=0.95  daily=Shape_243
New Load.LOAD244 Phases=1 Bus1=1273.1.4 kV=0.23 kW=1 PF=0.95  daily=Shape_244
New Load.LOAD245 Phases=1 Bus1=1273.1.4 kV=0.23 kW=1 PF=0.95  daily=Shape_245
New Load.LOAD246 Phases=1 Bus1=1260.1.4 kV=0.23 kW=1 PF=0.95  daily=Shape_246
New Load.LOAD247 Phases=1 Bus1=1260.2.4 kV=0.23 kW=1 PF=0.95  daily=Shape_247
New Load.LOAD248 Phases=1 Bus1=1260.2.4 kV=0.23 kW=1 PF=0.95  daily=Shape_248
New Load.LOAD249 Phases=1 Bus1=1260.3.4 kV=0.23 kW=1 PF=0.95  daily=Shape_249
New Load.LOAD250 Phases=1 Bus1=1260.2.4 kV=0.23 kW=1 PF=0.95  daily=Shape_250
New Load.LOAD251 Phases=1 Bus1=1260.1.4 kV=0.23 kW=1 PF=0.95  daily=Shape_251
New Load.LOAD252 Phases=1 Bus1=1260.3.4 kV=0.23 kW=1 PF=0.95  daily=Shape_252
New Load.LOAD253 Phases=1 Bus1=1260.3.4 kV=0.23 kW=1 PF=0.95  daily=Shape_253
New Load.LOAD254 Phases=1 Bus1=1260.2.4 kV=0.23 kW=1 PF=0.95  daily=Shape_254
New Load.LOAD255 Phases=1 Bus1=1260.1.4 kV=0.23 kW=1 PF=0.95  daily=Shape_255
New Load.LOAD256 Phases=1 Bus1=1260.3.4 kV=0.23 kW=1 PF=0.95  daily=Shape_256
New Load.LOAD257 Phases=1 Bus1=1260.3.4 kV=0.23 kW=1 PF=0.95  daily=Shape_257
New Load.LOAD258 Phases=1 Bus1=1260.3.4 kV=0.23 kW=1 PF=0.95  daily=Shape_258
New Load.LOAD259 Phases=1 Bus1=1260.2.4 kV=0.23 kW=1 PF=0.95  daily=Shape_259
New Load.LOAD260 Phases=1 Bus1=1260.2.4 kV=0.23 kW=1 PF=0.95  daily=Shape_260
New Load.LOAD261 Phases=1 Bus1=1260.1.4 kV=0.23 kW=1 PF=0.95  daily=Shape_261
New Load.LOAD262 Phases=1 Bus1=1260.1.4 kV=0.23 kW=1 PF=0.95  daily=Shape_262
New Load.LOAD263 Phases=1 Bus1=1260.3.4 kV=0.23 kW=1 PF=0.95  daily=Shape_263
New Load.LOAD264 Phases=1 Bus1=1252.3.4 kV=0.23 kW=1 PF=0.95  daily=Shape_264
New Load.LOAD265 Phases=1 Bus1=1252.2.4 kV=0.23 kW=1 PF=0.95  daily=Shape_265
New Load.LOAD266 Phases=1 Bus1=1252.3.4 kV=0.23 kW=1 PF=0.95  daily=Shape_266
New Load.LOAD267 Phases=1 Bus1=1252.1.4 kV=0.23 kW=1 PF=0.95  daily=Shape_267
New Load.LOAD268 Phases=1 Bus1=1252.1.4 kV=0.23 kW=1 PF=0.95  daily=Shape_268
New Load.LOAD269 Phases=1 Bus1=1252.1.4 kV=0.23 kW=1 PF=0.95  daily=Shape_269
New Load.LOAD270 Phases=1 Bus1=1252.2.4 kV=0.23 kW=1 PF=0.95  daily=Shape_270
New Load.LOAD271 Phases=1 Bus1=1252.1.4 kV=0.23 kW=1 PF=0.95  daily=Shape_271
New Load.LOAD272 Phases=1 Bus1=1252.1.4 kV=0.23 kW=1 PF=0.95  daily=Shape_272
New Load.LOAD273 Phases=1 Bus1=1252.2.4 kV=0.23 kW=1 PF=0.95  daily=Shape_273
New Load.LOAD274 Phases=1 Bus1=1252.3.4 kV=0.23 kW=1 PF=0.95  daily=Shape_274
New Load.LOAD275 Phases=1 Bus1=1252.3.4 kV=0.23 kW=1 PF=0.95  daily=Shape_275
New Load.LOAD276 Phases=1 Bus1=1252.3.4 kV=0.23 kW=1 PF=0.95  daily=Shape_276
New Load.LOAD277 Phases=1 Bus1=1252.2.4 kV=0.23 kW=1 PF=0.95  daily=Shape_277
New Load.LOAD278 Phases=1 Bus1=1263.3.4 kV=0.23 kW=1 PF=0.95  daily=Shape_278
New Load.LOAD279 Phases=1 Bus1=1263.1.4 kV=0.23 kW=1 PF=0.95  daily=Shape_279
New Load.LOAD280 Phases=1 Bus1=1263.2.4 kV=0.23 kW=1 PF=0.95  daily=Shape_280
New Load.LOAD281 Phases=1 Bus1=1263.3.4 kV=0.23 kW=1 PF=0.95  daily=Shape_281
New Load.LOAD282 Phases=1 Bus1=1263.3.4 kV=0.23 kW=1 PF=0.95  daily=Shape_282
New Load.LOAD283 Phases=1 Bus1=1273.1.4 kV=0.23 kW=1 PF=0.95  daily=Shape_283
New Load.LOAD284 Phases=1 Bus1=1273.3.4 kV=0.23 kW=1 PF=0.95  daily=Shape_284
New Load.LOAD285 Phases=1 Bus1=1273.2.4 kV=0.23 kW=1 PF=0.95  daily=Shape_285
New Load.LOAD286 Phases=1 Bus1=1273.3.4 kV=0.23 kW=1 PF=0.95  daily=Shape_286
New Load.LOAD287 Phases=1 Bus1=1273.3.4 kV=0.23 kW=1 PF=0.95  daily=Shape_287
New Load.LOAD288 Phases=1 Bus1=1273.1.4 kV=0.23 kW=1 PF=0.95  daily=Shape_288
New Load.LOAD289 Phases=1 Bus1=1273.3.4 kV=0.23 kW=1 PF=0.95  daily=Shape_289
New Load.LOAD290 Phases=1 Bus1=1273.3.4 kV=0.23 kW=1 PF=0.95  daily=Shape_290
New Load.LOAD291 Phases=1 Bus1=1273.1.4 kV=0.23 kW=1 PF=0.95  daily=Shape_291
New Load.LOAD292 Phases=1 Bus1=1273.1.4 kV=0.23 kW=1 PF=0.95  daily=Shape_292
New Load.LOAD293 Phases=1 Bus1=1222.1.4 kV=0.23 kW=1 PF=0.95  daily=Shape_293
New Load.LOAD294 Phases=1 Bus1=1222.3.4 kV=0.23 kW=1 PF=0.95  daily=Shape_294
New Load.LOAD295 Phases=1 Bus1=1228.1.4 kV=0.23 kW=1 PF=0.95  daily=Shape_295
New Load.LOAD296 Phases=1 Bus1=1228.2.4 kV=0.23 kW=1 PF=0.95  daily=Shape_296
New Load.LOAD297 Phases=1 Bus1=1228.2.4 kV=0.23 kW=1 PF=0.95  daily=Shape_297
New Load.LOAD298 Phases=1 Bus1=1228.1.4 kV=0.23 kW=1 PF=0.95  daily=Shape_298
New Load.LOAD299 Phases=1 Bus1=1228.3.4 kV=0.23 kW=1 PF=0.95  daily=Shape_299
New Load.LOAD300 Phases=1 Bus1=1228.2.4 kV=0.23 kW=1 PF=0.95  daily=Shape_300
New Load.LOAD301 Phases=1 Bus1=1228.3.4 kV=0.23 kW=1 PF=0.95  daily=Shape_301
New Load.LOAD302 Phases=1 Bus1=1228.2.4 kV=0.23 kW=1 PF=0.95  daily=Shape_302
New Load.LOAD303 Phases=1 Bus1=1228.3.4 kV=0.23 kW=1 PF=0.95  daily=Shape_303
New Load.LOAD304 Phases=1 Bus1=1228.3.4 kV=0.23 kW=1 PF=0.95  daily=Shape_304
New Load.LOAD305 Phases=1 Bus1=1224.2.4 kV=0.23 kW=1 PF=0.95  daily=Shape_305
New Load.LOAD306 Phases=1 Bus1=1224.2.4 kV=0.23 kW=1 PF=0.95  daily=Shape_306
New Load.LOAD307 Phases=1 Bus1=1224.2.4 kV=0.23 kW=1 PF=0.95  daily=Shape_307
New Load.LOAD308 Phases=1 Bus1=1222.1.4 kV=0.23 kW=1 PF=0.95  daily=Shape_308
New Load.LOAD309 Phases=1 Bus1=1222.3.4 kV=0.23 kW=1 PF=0.95  daily=Shape_309
New Load.LOAD310 Phases=1 Bus1=1222.2.4 kV=0.23 kW=1 PF=0.95  daily=Shape_310
New Load.LOAD311 Phases=1 Bus1=1222.3.4 kV=0.23 kW=1 PF=0.95  daily=Shape_311
New Load.LOAD312 Phases=1 Bus1=1224.3.4 kV=0.23 kW=1 PF=0.95  daily=Shape_312
New Load.LOAD313 Phases=1 Bus1=1224.2.4 kV=0.23 kW=1 PF=0.95  daily=Shape_313
New Load.LOAD314 Phases=1 Bus1=1224.2.4 kV=0.23 kW=1 PF=0.95  daily=Shape_314
New Load.LOAD315 Phases=1 Bus1=1224.2.4 kV=0.23 kW=1 PF=0.95  daily=Shape_315
New Load.LOAD316 Phases=1 Bus1=1224.1.4 kV=0.23 kW=1 PF=0.95  daily=Shape_316
New Load.LOAD317 Phases=1 Bus1=1224.1.4 kV=0.23 kW=1 PF=0.95  daily=Shape_317
New Load.LOAD318 Phases=1 Bus1=1224.2.4 kV=0.23 kW=1 PF=0.95  daily=Shape_318
New Load.LOAD319 Phases=1 Bus1=1224.2.4 kV=0.23 kW=1 PF=0.95  daily=Shape_319
New Load.LOAD320 Phases=1 Bus1=1224.3.4 kV=0.23 kW=1 PF=0.95  daily=Shape_320
New Load.LOAD321 Phases=1 Bus1=1224.1.4 kV=0.23 kW=1 PF=0.95  daily=Shape_321
New Load.LOAD322 Phases=1 Bus1=1224.3.4 kV=0.23 kW=1 PF=0.95  daily=Shape_322
New Load.LOAD323 Phases=1 Bus1=1224.1.4 kV=0.23 kW=1 PF=0.95  daily=Shape_323
New Load.LOAD324 Phases=1 Bus1=1224.3.4 kV=0.23 kW=1 PF=0.95  daily=Shape_324
New Load.LOAD325 Phases=1 Bus1=1222.2.4 kV=0.23 kW=1 PF=0.95  daily=Shape_325
New Load.LOAD326 Phases=1 Bus1=1222.3.4 kV=0.23 kW=1 PF=0.95  daily=Shape_326
New Load.LOAD327 Phases=1 Bus1=1222.2.4 kV=0.23 kW=1 PF=0.95  daily=Shape_327
New Load.LOAD328 Phases=1 Bus1=1222.3.4 kV=0.23 kW=1 PF=0.95  daily=Shape_328
New Load.LOAD329 Phases=1 Bus1=1222.2.4 kV=0.23 kW=1 PF=0.95  daily=Shape_329
New Load.LOAD330 Phases=1 Bus1=1222.1.4 kV=0.23 kW=1 PF=0.95  daily=Shape_330
New Load.LOAD331 Phases=1 Bus1=1222.1.4 kV=0.23 kW=1 PF=0.95  daily=Shape_331
New Load.LOAD332 Phases=1 Bus1=1222.3.4 kV=0.23 kW=1 PF=0.95  daily=Shape_332
New Load.LOAD333 Phases=1 Bus1=1222.3.4 kV=0.23 kW=1 PF=0.95  daily=Shape_333
New Load.LOAD334 Phases=1 Bus1=1222.2.4 kV=0.23 kW=1 PF=0.95  daily=Shape_334
New Load.LOAD335 Phases=1 Bus1=1258.3.4 kV=0.23 kW=1 PF=0.95  daily=Shape_335
New Load.LOAD336 Phases=1 Bus1=1228.1.4 kV=0.23 kW=1 PF=0.95  daily=Shape_336
New Load.LOAD337 Phases=1 Bus1=1228.1.4 kV=0.23 kW=1 PF=0.95  daily=Shape_337
New Load.LOAD338 Phases=1 Bus1=1228.1.4 kV=0.23 kW=1 PF=0.95  daily=Shape_338
New Load.LOAD339 Phases=1 Bus1=1228.3.4 kV=0.23 kW=1 PF=0.95  daily=Shape_339
New Load.LOAD340 Phases=1 Bus1=1228.3.4 kV=0.23 kW=1 PF=0.95  daily=Shape_340
New Load.LOAD341 Phases=1 Bus1=1228.2.4 kV=0.23 kW=1 PF=0.95  daily=Shape_341
New Load.LOAD342 Phases=1 Bus1=1228.1.4 kV=0.23 kW=1 PF=0.95  daily=Shape_342
New Load.LOAD343 Phases=1 Bus1=1228.3.4 kV=0.23 kW=1 PF=0.95  daily=Shape_343
New Load.LOAD344 Phases=1 Bus1=1228.2.4 kV=0.23 kW=1 PF=0.95  daily=Shape_344
New Load.LOAD345 Phases=1 Bus1=1235.1.4 kV=0.23 kW=1 PF=0.95  daily=Shape_345
New Load.LOAD346 Phases=1 Bus1=1270.3.4 kV=0.23 kW=1 PF=0.95  daily=Shape_346
New Load.LOAD347 Phases=1 Bus1=1259.1.4 kV=0.23 kW=1 PF=0.95  daily=Shape_347
New Load.LOAD348 Phases=1 Bus1=1252.1.4 kV=0.23 kW=1 PF=0.95  daily=Shape_348
New Load.LOAD349 Phases=3 Bus1=1247.1.2.3.4 kV=0.4 kW=1 PF=0.95  daily=Shape_349
New Load.LOAD350 Phases=3 Bus1=1247.1.2.3.4 kV=0.4 kW=1 PF=0.95  daily=Shape_350
New Load.LOAD351 Phases=3 Bus1=1243.1.2.3.4 kV=0.4 kW=1 PF=0.95  daily=Shape_351
New Load.LOAD352 Phases=3 Bus1=1267.1.2.3.4 kV=0.4 kW=1 PF=0.95  daily=Shape_352
New Load.LOAD353 Phases=3 Bus1=1267.1.2.3.4 kV=0.4 kW=1 PF=0.95  daily=Shape_353
New Load.LOAD354 Phases=3 Bus1=1270.1.2.3.4 kV=0.4 kW=1 PF=0.95  daily=Shape_354
New Load.LOAD355 Phases=3 Bus1=1270.1.2.3.4 kV=0.4 kW=1 PF=0.95  daily=Shape_355
New Load.LOAD356 Phases=3 Bus1=1255.1.2.3.4 kV=0.4 kW=1 PF=0.95  daily=Shape_356
New Load.LOAD357 Phases=3 Bus1=1256.1.2.3.4 kV=0.4 kW=1 PF=0.95  daily=Shape_357
New Load.LOAD358 Phases=3 Bus1=1258.1.2.3.4 kV=0.4 kW=1 PF=0.95  daily=Shape_358
New Load.LOAD359 Phases=3 Bus1=1258.1.2.3.4 kV=0.4 kW=1 PF=0.95  daily=Shape_359
New Load.LOAD360 Phases=3 Bus1=1258.1.2.3.4 kV=0.4 kW=1 PF=0.95  daily=Shape_360
New Load.LOAD361 Phases=3 Bus1=1260.1.2.3.4 kV=0.4 kW=1 PF=0.95  daily=Shape_361
New Load.LOAD362 Phases=3 Bus1=1260.1.2.3.4 kV=0.4 kW=1 PF=0.95  daily=Shape_362
New Load.LOAD363 Phases=3 Bus1=1269.1.2.3.4 kV=0.4 kW=1 PF=0.95  daily=Shape_363
New Load.LOAD364 Phases=3 Bus1=1252.1.2.3.4 kV=0.4 kW=1 PF=0.95  daily=Shape_364
New Load.LOAD365 Phases=3 Bus1=1263.1.2.3.4 kV=0.4 kW=1 PF=0.95  daily=Shape_365
New Load.LOAD366 Phases=3 Bus1=1263.1.2.3.4 kV=0.4 kW=1 PF=0.95  daily=Shape_366
New Load.LOAD367 Phases=3 Bus1=1252.1.2.3.4 kV=0.4 kW=1 PF=0.95  daily=Shape_367
New Load.LOAD368 Phases=3 Bus1=1220.1.2.3.4 kV=0.4 kW=1 PF=0.95  daily=Shape_368
New Load.LOAD369 Phases=3 Bus1=1258.1.2.3.4 kV=0.4 kW=1 PF=0.95  daily=Shape_369
New Load.LOAD370 Phases=3 Bus1=1273.1.2.3.4 kV=0.4 kW=1 PF=0.95  daily=Shape_370
New Load.LOAD371 Phases=3 Bus1=1244.1.2.3.4 kV=0.4 kW=1 PF=0.95  daily=Shape_371
New Load.LOAD372 Phases=3 Bus1=1242.1.2.3.4 kV=0.4 kW=1 PF=0.95  daily=Shape_372
New Load.LOAD373 Phases=3 Bus1=1240.1.2.3.4 kV=0.4 kW=1 PF=0.95  daily=Shape_373
New Load.LOAD374 Phases=3 Bus1=1242.1.2.3.4 kV=0.4 kW=1 PF=0.95  daily=Shape_374
New Load.LOAD375 Phases=3 Bus1=1233.1.2.3.4 kV=0.4 kW=1 PF=0.95  daily=Shape_375
New Load.LOAD376 Phases=3 Bus1=1233.1.2.3.4 kV=0.4 kW=1 PF=0.95  daily=Shape_376
New Load.LOAD377 Phases=3 Bus1=1235.1.2.3.4 kV=0.4 kW=1 PF=0.95  daily=Shape_377
New Load.LOAD378 Phases=3 Bus1=1228.1.2.3.4 kV=0.4 kW=1 PF=0.95  daily=Shape_378
New Load.LOAD379 Phases=3 Bus1=1220.1.2.3.4 kV=0.4 kW=1 PF=0.95  daily=Shape_379
New Load.LOAD380 Phases=3 Bus1=1224.1.2.3.4 kV=0.4 kW=1 PF=0.95  daily=Shape_380
New Load.LOAD381 Phases=3 Bus1=1222.1.2.3.4 kV=0.4 kW=1 PF=0.95  daily=Shape_381
New Load.LOAD382 Phases=3 Bus1=1222.1.2.3.4 kV=0.4 kW=1 PF=0.95  daily=Shape_382
New Load.LOAD383 Phases=3 Bus1=1260.1.2.3.4 kV=0.4 kW=1 PF=0.95  daily=Shape_383
New Load.LOAD384 Phases=3 Bus1=1259.1.2.3.4 kV=0.4 kW=1 PF=0.95  daily=Shape_384
New Load.LOAD385 Phases=3 Bus1=1220.1.2.3.4 kV=0.4 kW=1 PF=0.95  daily=Shape_385