New Line.feeder1 Bus1=31.1.2.3.4 Bus2=31_1.1.2.3.4 phases=4 Linecode=205 Length=4.340 Units=m
New Line.feeder2 Bus1=31.1.2.3.4 Bus2=31_2.1.2.3.4 phases=4 Linecode=205 Length=3.678 Units=m
New Line.feeder3 Bus1=31.1.2.3.4 Bus2=31_3.1.2.3.4 phases=4 Linecode=205 Length=3.036 Units=m
New Line.feeder4 Bus1=31.1.2.3.4 Bus2=31_4.1.2.3.4 phases=4 Linecode=205 Length=2.417 Units=m
New Line.feeder5 Bus1=31.1.2.3.4 Bus2=31_5.1.2.3.4 phases=4 Linecode=205 Length=1.876 Units=m
New Line.feeder6 Bus1=32.1.2.3.4 Bus2=32_2.1.2.3.4 phases=4 Linecode=205 Length=3.308 Units=m
New Line.feeder7 Bus1=32.1.2.3.4 Bus2=32_4.1.2.3.4 phases=4 Linecode=205 Length=2.019 Units=m
New Line.feeder8 Bus1=32.1.2.3.4 Bus2=32_5.1.2.3.4 phases=4 Linecode=205 Length=1.445 Units=m
New Line.feeder9 Bus1=32.1.2.3.4 Bus2=32_7.1.2.3.4 phases=4 Linecode=205 Length=1.057 Units=m
New Line.feeder10 Bus1=32.1.2.3.4 Bus2=32_8.1.2.3.4 phases=4 Linecode=205 Length=1.448 Units=m
New Line.feeder11 Bus1=32.1.2.3.4 Bus2=32_10.1.2.3.4 phases=4 Linecode=205 Length=2.643 Units=m
New Line.feeder12 Bus1=32.1.2.3.4 Bus2=32_12.1.2.3.4 phases=4 Linecode=205 Length=3.977 Units=m
New Line.feeder13 Bus1=32.1.2.3.4 Bus2=32_13.1.2.3.4 phases=4 Linecode=205 Length=4.668 Units=m
New Line.feeder14 Bus1=33.1.2.3.4 Bus2=33_1.1.2.3.4 phases=4 Linecode=205 Length=1.424 Units=m
New Line.feeder15 Bus1=33.1.2.3.4 Bus2=33_2.1.2.3.4 phases=4 Linecode=205 Length=1.004 Units=m
New Line.feeder16 Bus1=33.1.2.3.4 Bus2=33_4.1.2.3.4 phases=4 Linecode=205 Length=1.382 Units=m
New Line.feeder17 Bus1=34.1.2.3.4 Bus2=34_1.1.2.3.4 phases=4 Linecode=205 Length=2.990 Units=m
New Line.feeder18 Bus1=34.1.2.3.4 Bus2=34_2.1.2.3.4 phases=4 Linecode=205 Length=2.440 Units=m
New Line.feeder19 Bus1=34.1.2.3.4 Bus2=34_3.1.2.3.4 phases=4 Linecode=205 Length=2.006 Units=m
New Line.feeder20 Bus1=34.1.2.3.4 Bus2=34_4.1.2.3.4 phases=4 Linecode=205 Length=1.732 Units=m
New Line.feeder21 Bus1=34.1.2.3.4 Bus2=34_5.1.2.3.4 phases=4 Linecode=205 Length=1.716 Units=m
New Line.feeder22 Bus1=34.1.2.3.4 Bus2=34_8.1.2.3.4 phases=4 Linecode=205 Length=2.975 Units=m
New Line.feeder23 Bus1=35.1.2.3.4 Bus2=35_1.1.2.3.4 phases=4 Linecode=205 Length=2.611 Units=m
New Line.feeder24 Bus1=35.1.2.3.4 Bus2=35_2.1.2.3.4 phases=4 Linecode=205 Length=1.950 Units=m
New Line.feeder25 Bus1=35.1.2.3.4 Bus2=35_3.1.2.3.4 phases=4 Linecode=205 Length=1.337 Units=m
New Line.feeder26 Bus1=35.1.2.3.4 Bus2=35_4.1.2.3.4 phases=4 Linecode=205 Length=0.869 Units=m
New Line.feeder27 Bus1=35.1.2.3.4 Bus2=35_5.1.2.3.4 phases=4 Linecode=205 Length=0.841 Units=m
New Line.feeder28 Bus1=35.1.2.3.4 Bus2=35_6.1.2.3.4 phases=4 Linecode=205 Length=1.276 Units=m
New Line.feeder29 Bus1=35.1.2.3.4 Bus2=35_7.1.2.3.4 phases=4 Linecode=205 Length=1.883 Units=m
New Line.feeder30 Bus1=36.1.2.3.4 Bus2=36_3.1.2.3.4 phases=4 Linecode=205 Length=4.743 Units=m
New Line.feeder31 Bus1=36.1.2.3.4 Bus2=36_4.1.2.3.4 phases=4 Linecode=205 Length=4.684 Units=m
New Line.feeder32 Bus1=36.1.2.3.4 Bus2=36_5.1.2.3.4 phases=4 Linecode=205 Length=4.712 Units=m
New Line.feeder33 Bus1=36.1.2.3.4 Bus2=36_8.1.2.3.4 phases=4 Linecode=205 Length=5.411 Units=m
New Line.feeder34 Bus1=37.1.2.3.4 Bus2=37_1.1.2.3.4 phases=4 Linecode=205 Length=2.550 Units=m
New Line.feeder35 Bus1=37.1.2.3.4 Bus2=37_3.1.2.3.4 phases=4 Linecode=205 Length=1.401 Units=m
New Line.feeder36 Bus1=37.1.2.3.4 Bus2=37_4.1.2.3.4 phases=4 Linecode=205 Length=1.077 Units=m
New Line.feeder37 Bus1=37.1.2.3.4 Bus2=37_6.1.2.3.4 phases=4 Linecode=205 Length=1.584 Units=m
New Line.feeder38 Bus1=37.1.2.3.4 Bus2=37_7.1.2.3.4 phases=4 Linecode=205 Length=2.154 Units=m
New Line.feeder39 Bus1=38.1.2.3.4 Bus2=38_1.1.2.3.4 phases=4 Linecode=205 Length=3.995 Units=m
New Line.feeder40 Bus1=38.1.2.3.4 Bus2=38_3.1.2.3.4 phases=4 Linecode=205 Length=2.679 Units=m
New Line.feeder41 Bus1=38.1.2.3.4 Bus2=38_4.1.2.3.4 phases=4 Linecode=205 Length=2.062 Units=m
New Line.feeder42 Bus1=38.1.2.3.4 Bus2=38_5.1.2.3.4 phases=4 Linecode=205 Length=1.506 Units=m
New Line.feeder43 Bus1=38.1.2.3.4 Bus2=38_6.1.2.3.4 phases=4 Linecode=205 Length=1.139 Units=m
New Line.feeder44 Bus1=38.1.2.3.4 Bus2=38_7.1.2.3.4 phases=4 Linecode=205 Length=1.144 Units=m
New Line.feeder45 Bus1=38.1.2.3.4 Bus2=38_8.1.2.3.4 phases=4 Linecode=205 Length=1.516 Units=m
New Line.feeder46 Bus1=38.1.2.3.4 Bus2=38_11.1.2.3.4 phases=4 Linecode=205 Length=3.217 Units=m
New Line.feeder47 Bus1=38.1.2.3.4 Bus2=38_12.1.2.3.4 phases=4 Linecode=205 Length=3.883 Units=m
New Line.feeder48 Bus1=39.1.2.3.4 Bus2=39_1.1.2.3.4 phases=4 Linecode=205 Length=2.682 Units=m
New Line.feeder49 Bus1=39.1.2.3.4 Bus2=39_2.1.2.3.4 phases=4 Linecode=205 Length=2.062 Units=m
New Line.feeder50 Bus1=39.1.2.3.4 Bus2=39_5.1.2.3.4 phases=4 Linecode=205 Length=1.170 Units=m
New Line.feeder51 Bus1=39.1.2.3.4 Bus2=39_7.1.2.3.4 phases=4 Linecode=205 Length=2.067 Units=m
New Line.feeder52 Bus1=39.1.2.3.4 Bus2=39_8.1.2.3.4 phases=4 Linecode=205 Length=2.695 Units=m
New Line.feeder53 Bus1=40.1.2.3.4 Bus2=40_1.1.2.3.4 phases=4 Linecode=205 Length=2.659 Units=m
New Line.feeder54 Bus1=40.1.2.3.4 Bus2=40_2.1.2.3.4 phases=4 Linecode=205 Length=2.028 Units=m
New Line.feeder55 Bus1=40.1.2.3.4 Bus2=40_3.1.2.3.4 phases=4 Linecode=205 Length=1.460 Units=m
New Line.feeder56 Bus1=40.1.2.3.4 Bus2=40_5.1.2.3.4 phases=4 Linecode=205 Length=1.056 Units=m
New Line.feeder57 Bus1=40.1.2.3.4 Bus2=40_8.1.2.3.4 phases=4 Linecode=205 Length=2.634 Units=m
New Line.feeder58 Bus1=41.1.2.3.4 Bus2=41_3.1.2.3.4 phases=4 Linecode=205 Length=2.352 Units=m
New Line.feeder59 Bus1=41.1.2.3.4 Bus2=41_6.1.2.3.4 phases=4 Linecode=205 Length=1.430 Units=m
New Line.feeder60 Bus1=41.1.2.3.4 Bus2=41_7.1.2.3.4 phases=4 Linecode=205 Length=1.681 Units=m
New Line.feeder61 Bus1=41.1.2.3.4 Bus2=41_8.1.2.3.4 phases=4 Linecode=205 Length=2.150 Units=m
New Line.feeder62 Bus1=42.1.2.3.4 Bus2=42_3.1.2.3.4 phases=4 Linecode=205 Length=2.714 Units=m
New Line.feeder63 Bus1=42.1.2.3.4 Bus2=42_5.1.2.3.4 phases=4 Linecode=205 Length=1.510 Units=m
New Line.feeder64 Bus1=42.1.2.3.4 Bus2=42_6.1.2.3.4 phases=4 Linecode=205 Length=1.105 Units=m
New Line.feeder65 Bus1=42.1.2.3.4 Bus2=42_7.1.2.3.4 phases=4 Linecode=205 Length=1.089 Units=m
New Line.feeder66 Bus1=42.1.2.3.4 Bus2=42_9.1.2.3.4 phases=4 Linecode=205 Length=2.000 Units=m
New Line.feeder67 Bus1=42.1.2.3.4 Bus2=42_10.1.2.3.4 phases=4 Linecode=205 Length=2.623 Units=m
New Line.feeder68 Bus1=42.1.2.3.4 Bus2=42_11.1.2.3.4 phases=4 Linecode=205 Length=3.272 Units=m
New Line.feeder69 Bus1=42.1.2.3.4 Bus2=42_12.1.2.3.4 phases=4 Linecode=205 Length=3.947 Units=m
New Line.feeder70 Bus1=43.1.2.3.4 Bus2=43_1.1.2.3.4 phases=4 Linecode=205 Length=7.590 Units=m
New Line.feeder71 Bus1=43.1.2.3.4 Bus2=43_2.1.2.3.4 phases=4 Linecode=205 Length=7.994 Units=m
New Line.feeder72 Bus1=43.1.2.3.4 Bus2=43_4.1.2.3.4 phases=4 Linecode=205 Length=8.918 Units=m
New Line.feeder73 Bus1=43.1.2.3.4 Bus2=43_5.1.2.3.4 phases=4 Linecode=205 Length=9.428 Units=m
New Line.feeder74 Bus1=43.1.2.3.4 Bus2=43_6.1.2.3.4 phases=4 Linecode=205 Length=9.955 Units=m
New Line.feeder75 Bus1=43.1.2.3.4 Bus2=43_7.1.2.3.4 phases=4 Linecode=205 Length=10.508 Units=m
New Line.feeder76 Bus1=43.1.2.3.4 Bus2=43_9.1.2.3.4 phases=4 Linecode=205 Length=11.635 Units=m
New Line.feeder77 Bus1=44.1.2.3.4 Bus2=44_2.1.2.3.4 phases=4 Linecode=205 Length=1.718 Units=m
New Line.feeder78 Bus1=44.1.2.3.4 Bus2=44_3.1.2.3.4 phases=4 Linecode=205 Length=1.630 Units=m
New Line.feeder79 Bus1=44.1.2.3.4 Bus2=44_4.1.2.3.4 phases=4 Linecode=205 Length=1.827 Units=m
New Line.feeder80 Bus1=44.1.2.3.4 Bus2=44_5.1.2.3.4 phases=4 Linecode=205 Length=2.243 Units=m
New Line.feeder81 Bus1=44.1.2.3.4 Bus2=44_6.1.2.3.4 phases=4 Linecode=205 Length=2.763 Units=m
New Line.feeder82 Bus1=44.1.2.3.4 Bus2=44_7.1.2.3.4 phases=4 Linecode=205 Length=3.354 Units=m
New Line.feeder83 Bus1=45.1.2.3.4 Bus2=45_1.1.2.3.4 phases=4 Linecode=205 Length=6.349 Units=m
New Line.feeder84 Bus1=45.1.2.3.4 Bus2=45_2.1.2.3.4 phases=4 Linecode=205 Length=6.301 Units=m
New Line.feeder85 Bus1=45.1.2.3.4 Bus2=45_3.1.2.3.4 phases=4 Linecode=205 Length=6.320 Units=m
New Line.feeder86 Bus1=45.1.2.3.4 Bus2=45_5.1.2.3.4 phases=4 Linecode=205 Length=6.594 Units=m
New Line.feeder87 Bus1=45.1.2.3.4 Bus2=45_7.1.2.3.4 phases=4 Linecode=205 Length=7.137 Units=m
New Line.feeder88 Bus1=45.1.2.3.4 Bus2=45_8.1.2.3.4 phases=4 Linecode=205 Length=7.492 Units=m
New Line.feeder89 Bus1=46.1.2.3.4 Bus2=46_1.1.2.3.4 phases=4 Linecode=205 Length=4.959 Units=m
New Line.feeder90 Bus1=46.1.2.3.4 Bus2=46_2.1.2.3.4 phases=4 Linecode=205 Length=5.616 Units=m
New Line.feeder91 Bus1=46.1.2.3.4 Bus2=46_3.1.2.3.4 phases=4 Linecode=205 Length=6.288 Units=m
New Line.feeder92 Bus1=46.1.2.3.4 Bus2=46_4.1.2.3.4 phases=4 Linecode=205 Length=6.957 Units=m
New Line.feeder93 Bus1=46.1.2.3.4 Bus2=46_7.1.2.3.4 phases=4 Linecode=205 Length=8.990 Units=m
New Line.feeder94 Bus1=46.1.2.3.4 Bus2=46_8.1.2.3.4 phases=4 Linecode=205 Length=9.687 Units=m
New Line.feeder95 Bus1=47.1.2.3.4 Bus2=47_1.1.2.3.4 phases=4 Linecode=205 Length=2.571 Units=m
New Line.feeder96 Bus1=47.1.2.3.4 Bus2=47_3.1.2.3.4 phases=4 Linecode=205 Length=1.295 Units=m
New Line.feeder97 Bus1=47.1.2.3.4 Bus2=47_4.1.2.3.4 phases=4 Linecode=205 Length=0.824 Units=m
New Line.feeder98 Bus1=47.1.2.3.4 Bus2=47_5.1.2.3.4 phases=4 Linecode=205 Length=0.815 Units=m
New Line.feeder99 Bus1=47.1.2.3.4 Bus2=47_8.1.2.3.4 phases=4 Linecode=205 Length=2.550 Units=m
New Line.feeder100 Bus1=48.1.2.3.4 Bus2=48_3.1.2.3.4 phases=4 Linecode=205 Length=0.827 Units=m
New Line.feeder101 Bus1=48.1.2.3.4 Bus2=48_4.1.2.3.4 phases=4 Linecode=205 Length=0.756 Units=m
New Line.feeder102 Bus1=48.1.2.3.4 Bus2=48_5.1.2.3.4 phases=4 Linecode=205 Length=1.182 Units=m
New Line.feeder103 Bus1=48.1.2.3.4 Bus2=48_6.1.2.3.4 phases=4 Linecode=205 Length=1.794 Units=m
New Line.feeder104 Bus1=48.1.2.3.4 Bus2=48_7.1.2.3.4 phases=4 Linecode=205 Length=2.435 Units=m
New Line.feeder105 Bus1=48.1.2.3.4 Bus2=48_8.1.2.3.4 phases=4 Linecode=205 Length=3.131 Units=m
New Line.feeder106 Bus1=49.1.2.3.4 Bus2=49_5.1.2.3.4 phases=4 Linecode=205 Length=1.340 Units=m
New Line.feeder107 Bus1=49.1.2.3.4 Bus2=49_7.1.2.3.4 phases=4 Linecode=205 Length=1.051 Units=m
New Line.feeder108 Bus1=49.1.2.3.4 Bus2=49_8.1.2.3.4 phases=4 Linecode=205 Length=1.490 Units=m
New Line.feeder109 Bus1=50.1.2.3.4 Bus2=50_1.1.2.3.4 phases=4 Linecode=205 Length=2.846 Units=m
New Line.feeder110 Bus1=50.1.2.3.4 Bus2=50_2.1.2.3.4 phases=4 Linecode=205 Length=2.235 Units=m
New Line.feeder111 Bus1=50.1.2.3.4 Bus2=50_3.1.2.3.4 phases=4 Linecode=205 Length=1.712 Units=m
New Line.feeder112 Bus1=50.1.2.3.4 Bus2=50_4.1.2.3.4 phases=4 Linecode=205 Length=1.358 Units=m
New Line.feeder113 Bus1=50.1.2.3.4 Bus2=50_5.1.2.3.4 phases=4 Linecode=205 Length=1.330 Units=m
New Line.feeder114 Bus1=50.1.2.3.4 Bus2=50_6.1.2.3.4 phases=4 Linecode=205 Length=1.592 Units=m
New Line.feeder115 Bus1=50.1.2.3.4 Bus2=50_7.1.2.3.4 phases=4 Linecode=205 Length=2.098 Units=m
New Line.feeder116 Bus1=50.1.2.3.4 Bus2=50_8.1.2.3.4 phases=4 Linecode=205 Length=2.682 Units=m
New Line.feeder117 Bus1=51.1.2.3.4 Bus2=51_1.1.2.3.4 phases=4 Linecode=205 Length=2.655 Units=m
New Line.feeder118 Bus1=51.1.2.3.4 Bus2=51_2.1.2.3.4 phases=4 Linecode=205 Length=2.016 Units=m
New Line.feeder119 Bus1=51.1.2.3.4 Bus2=51_3.1.2.3.4 phases=4 Linecode=205 Length=1.438 Units=m
New Line.feeder120 Bus1=51.1.2.3.4 Bus2=51_4.1.2.3.4 phases=4 Linecode=205 Length=0.997 Units=m
New Line.feeder121 Bus1=51.1.2.3.4 Bus2=51_7.1.2.3.4 phases=4 Linecode=205 Length=1.942 Units=m
New Line.feeder122 Bus1=51.1.2.3.4 Bus2=51_8.1.2.3.4 phases=4 Linecode=205 Length=2.577 Units=m
New Line.feeder123 Bus1=52.1.2.3.4 Bus2=52_3.1.2.3.4 phases=4 Linecode=205 Length=1.633 Units=m
New Line.feeder124 Bus1=52.1.2.3.4 Bus2=52_4.1.2.3.4 phases=4 Linecode=205 Length=1.298 Units=m
New Line.feeder125 Bus1=52.1.2.3.4 Bus2=52_5.1.2.3.4 phases=4 Linecode=205 Length=1.261 Units=m
New Line.feeder126 Bus1=52.1.2.3.4 Bus2=52_6.1.2.3.4 phases=4 Linecode=205 Length=1.588 Units=m
New Line.feeder127 Bus1=52.1.2.3.4 Bus2=52_7.1.2.3.4 phases=4 Linecode=205 Length=2.116 Units=m
New Line.feeder128 Bus1=52.1.2.3.4 Bus2=52_8.1.2.3.4 phases=4 Linecode=205 Length=2.713 Units=m
New Line.feeder129 Bus1=53.1.2.3.4 Bus2=53_1.1.2.3.4 phases=4 Linecode=205 Length=2.240 Units=m
New Line.feeder130 Bus1=53.1.2.3.4 Bus2=53_2.1.2.3.4 phases=4 Linecode=205 Length=1.711 Units=m
New Line.feeder131 Bus1=53.1.2.3.4 Bus2=53_3.1.2.3.4 phases=4 Linecode=205 Length=1.343 Units=m
New Line.feeder132 Bus1=53.1.2.3.4 Bus2=53_4.1.2.3.4 phases=4 Linecode=205 Length=1.294 Units=m
New Line.feeder133 Bus1=53.1.2.3.4 Bus2=53_5.1.2.3.4 phases=4 Linecode=205 Length=1.598 Units=m
New Line.feeder134 Bus1=53.1.2.3.4 Bus2=53_7.1.2.3.4 phases=4 Linecode=205 Length=2.678 Units=m
New Line.feeder135 Bus1=53.1.2.3.4 Bus2=53_8.1.2.3.4 phases=4 Linecode=205 Length=3.321 Units=m
New Line.feeder136 Bus1=54.1.2.3.4 Bus2=54_4.1.2.3.4 phases=4 Linecode=205 Length=1.372 Units=m
New Line.feeder137 Bus1=54.1.2.3.4 Bus2=54_5.1.2.3.4 phases=4 Linecode=205 Length=1.380 Units=m
New Line.feeder138 Bus1=54.1.2.3.4 Bus2=54_6.1.2.3.4 phases=4 Linecode=205 Length=1.703 Units=m
New Line.feeder139 Bus1=54.1.2.3.4 Bus2=54_7.1.2.3.4 phases=4 Linecode=205 Length=2.189 Units=m
New Line.feeder140 Bus1=54.1.2.3.4 Bus2=54_8.1.2.3.4 phases=4 Linecode=205 Length=2.793 Units=m
New Line.feeder141 Bus1=55.1.2.3.4 Bus2=55_1.1.2.3.4 phases=4 Linecode=205 Length=2.718 Units=m
New Line.feeder142 Bus1=55.1.2.3.4 Bus2=55_2.1.2.3.4 phases=4 Linecode=205 Length=2.077 Units=m
New Line.feeder143 Bus1=55.1.2.3.4 Bus2=55_3.1.2.3.4 phases=4 Linecode=205 Length=1.476 Units=m
New Line.feeder144 Bus1=55.1.2.3.4 Bus2=55_4.1.2.3.4 phases=4 Linecode=205 Length=1.011 Units=m
New Line.feeder145 Bus1=56.1.2.3.4 Bus2=56_3.1.2.3.4 phases=4 Linecode=205 Length=1.359 Units=m
New Line.feeder146 Bus1=56.1.2.3.4 Bus2=56_4.1.2.3.4 phases=4 Linecode=205 Length=0.904 Units=m
New Line.feeder147 Bus1=56.1.2.3.4 Bus2=56_5.1.2.3.4 phases=4 Linecode=205 Length=0.904 Units=m
New Line.feeder148 Bus1=56.1.2.3.4 Bus2=56_6.1.2.3.4 phases=4 Linecode=205 Length=1.337 Units=m
New Line.feeder149 Bus1=57.1.2.3.4 Bus2=57_1.1.2.3.4 phases=4 Linecode=205 Length=2.657 Units=m
New Line.feeder150 Bus1=57.1.2.3.4 Bus2=57_2.1.2.3.4 phases=4 Linecode=205 Length=2.003 Units=m
New Line.feeder151 Bus1=57.1.2.3.4 Bus2=57_3.1.2.3.4 phases=4 Linecode=205 Length=1.391 Units=m
New Line.feeder152 Bus1=57.1.2.3.4 Bus2=57_4.1.2.3.4 phases=4 Linecode=205 Length=0.914 Units=m
New Line.feeder153 Bus1=57.1.2.3.4 Bus2=57_5.1.2.3.4 phases=4 Linecode=205 Length=0.843 Units=m
New Line.feeder154 Bus1=58.1.2.3.4 Bus2=58_1.1.2.3.4 phases=4 Linecode=205 Length=1.965 Units=m
New Line.feeder155 Bus1=58.1.2.3.4 Bus2=58_2.1.2.3.4 phases=4 Linecode=205 Length=1.406 Units=m
New Line.feeder156 Bus1=58.1.2.3.4 Bus2=58_4.1.2.3.4 phases=4 Linecode=205 Length=1.087 Units=m
New Line.feeder157 Bus1=58.1.2.3.4 Bus2=58_7.1.2.3.4 phases=4 Linecode=205 Length=2.711 Units=m
New Line.feeder158 Bus1=58.1.2.3.4 Bus2=58_8.1.2.3.4 phases=4 Linecode=205 Length=3.365 Units=m
New Line.feeder159 Bus1=60.1.2.3.4 Bus2=60_1.1.2.3.4 phases=4 Linecode=205 Length=1.646 Units=m
New Line.feeder160 Bus1=60.1.2.3.4 Bus2=60_3.1.2.3.4 phases=4 Linecode=205 Length=1.181 Units=m
New Line.cktbk1 Bus1=31_1.1.2.3.4 Bus2=2684.1.2.3.4 phases=4 Linecode=102 Length=0.500 Units=m
New Line.cktbk2 Bus1=31_2.1.2.3.4 Bus2=2685.1.2.3.4 phases=4 Linecode=102 Length=0.500 Units=m
New Line.cktbk3 Bus1=31_3.1.2.3.4 Bus2=2687.1.2.3.4 phases=4 Linecode=102 Length=0.500 Units=m
New Line.cktbk4 Bus1=31_4.1.2.3.4 Bus2=2688.1.2.3.4 phases=4 Linecode=102 Length=0.500 Units=m
New Line.cktbk5 Bus1=31_5.1.2.3.4 Bus2=2689.1.2.3.4 phases=4 Linecode=102 Length=0.500 Units=m
New Line.cktbk6 Bus1=32_2.1.2.3.4 Bus2=2616.1.2.3.4 phases=4 Linecode=102 Length=0.500 Units=m
New Line.cktbk7 Bus1=32_4.1.2.3.4 Bus2=2610.1.2.3.4 phases=4 Linecode=102 Length=0.500 Units=m
New Line.cktbk8 Bus1=32_5.1.2.3.4 Bus2=2617.1.2.3.4 phases=4 Linecode=102 Length=0.500 Units=m
New Line.cktbk9 Bus1=32_7.1.2.3.4 Bus2=2852.1.2.3.4 phases=4 Linecode=102 Length=0.500 Units=m
New Line.cktbk10 Bus1=32_8.1.2.3.4 Bus2=2621.1.2.3.4 phases=4 Linecode=102 Length=0.500 Units=m
New Line.cktbk11 Bus1=32_10.1.2.3.4 Bus2=2611.1.2.3.4 phases=4 Linecode=102 Length=0.500 Units=m
New Line.cktbk12 Bus1=32_12.1.2.3.4 Bus2=2612.1.2.3.4 phases=4 Linecode=102 Length=0.500 Units=m
New Line.cktbk13 Bus1=32_13.1.2.3.4 Bus2=2868.1.2.3.4 phases=4 Linecode=102 Length=0.500 Units=m
New Line.cktbk14 Bus1=33_1.1.2.3.4 Bus2=2572.1.2.3.4 phases=4 Linecode=102 Length=0.500 Units=m
New Line.cktbk15 Bus1=33_2.1.2.3.4 Bus2=2571.1.2.3.4 phases=4 Linecode=102 Length=0.500 Units=m
New Line.cktbk16 Bus1=33_4.1.2.3.4 Bus2=2573.1.2.3.4 phases=4 Linecode=102 Length=0.500 Units=m
New Line.cktbk17 Bus1=34_1.1.2.3.4 Bus2=2640.1.2.3.4 phases=4 Linecode=102 Length=0.500 Units=m
New Line.cktbk18 Bus1=34_2.1.2.3.4 Bus2=2633.1.2.3.4 phases=4 Linecode=102 Length=0.500 Units=m
New Line.cktbk19 Bus1=34_3.1.2.3.4 Bus2=2630.1.2.3.4 phases=4 Linecode=102 Length=0.500 Units=m
New Line.cktbk20 Bus1=34_4.1.2.3.4 Bus2=2629.1.2.3.4 phases=4 Linecode=102 Length=0.500 Units=m
New Line.cktbk21 Bus1=34_5.1.2.3.4 Bus2=2626.1.2.3.4 phases=4 Linecode=102 Length=0.500 Units=m
New Line.cktbk22 Bus1=34_8.1.2.3.4 Bus2=2622.1.2.3.4 phases=4 Linecode=102 Length=0.500 Units=m
New Line.cktbk23 Bus1=35_1.1.2.3.4 Bus2=2641.1.2.3.4 phases=4 Linecode=102 Length=0.500 Units=m
New Line.cktbk24 Bus1=35_2.1.2.3.4 Bus2=2642.1.2.3.4 phases=4 Linecode=102 Length=0.500 Units=m
New Line.cktbk25 Bus1=35_3.1.2.3.4 Bus2=2643.1.2.3.4 phases=4 Linecode=102 Length=0.500 Units=m
New Line.cktbk26 Bus1=35_4.1.2.3.4 Bus2=2644.1.2.3.4 phases=4 Linecode=102 Length=0.500 Units=m
New Line.cktbk27 Bus1=35_5.1.2.3.4 Bus2=2645.1.2.3.4 phases=4 Linecode=102 Length=0.500 Units=m
New Line.cktbk28 Bus1=35_6.1.2.3.4 Bus2=2646.1.2.3.4 phases=4 Linecode=102 Length=0.500 Units=m
New Line.cktbk29 Bus1=35_7.1.2.3.4 Bus2=2647.1.2.3.4 phases=4 Linecode=102 Length=0.500 Units=m
New Line.cktbk30 Bus1=36_3.1.2.3.4 Bus2=2675.1.2.3.4 phases=4 Linecode=102 Length=0.500 Units=m
New Line.cktbk31 Bus1=36_4.1.2.3.4 Bus2=2678.1.2.3.4 phases=4 Linecode=102 Length=0.500 Units=m
New Line.cktbk32 Bus1=36_5.1.2.3.4 Bus2=2681.1.2.3.4 phases=4 Linecode=102 Length=0.500 Units=m
New Line.cktbk33 Bus1=36_8.1.2.3.4 Bus2=2682.1.2.3.4 phases=4 Linecode=102 Length=0.500 Units=m
New Line.cktbk34 Bus1=37_1.1.2.3.4 Bus2=2574.1.2.3.4 phases=4 Linecode=102 Length=0.500 Units=m
New Line.cktbk35 Bus1=37_3.1.2.3.4 Bus2=2575.1.2.3.4 phases=4 Linecode=102 Length=0.500 Units=m
New Line.cktbk36 Bus1=37_4.1.2.3.4 Bus2=2577.1.2.3.4 phases=4 Linecode=102 Length=0.500 Units=m
New Line.cktbk37 Bus1=37_6.1.2.3.4 Bus2=2752.1.2.3.4 phases=4 Linecode=102 Length=0.500 Units=m
New Line.cktbk38 Bus1=37_7.1.2.3.4 Bus2=2757.1.2.3.4 phases=4 Linecode=102 Length=0.500 Units=m
New Line.cktbk39 Bus1=38_1.1.2.3.4 Bus2=2648.1.2.3.4 phases=4 Linecode=102 Length=0.500 Units=m
New Line.cktbk40 Bus1=38_3.1.2.3.4 Bus2=2649.1.2.3.4 phases=4 Linecode=102 Length=0.500 Units=m
New Line.cktbk41 Bus1=38_4.1.2.3.4 Bus2=2650.1.2.3.4 phases=4 Linecode=102 Length=0.500 Units=m
New Line.cktbk42 Bus1=38_5.1.2.3.4 Bus2=2651.1.2.3.4 phases=4 Linecode=102 Length=0.500 Units=m
New Line.cktbk43 Bus1=38_6.1.2.3.4 Bus2=2652.1.2.3.4 phases=4 Linecode=102 Length=0.500 Units=m
New Line.cktbk44 Bus1=38_7.1.2.3.4 Bus2=2657.1.2.3.4 phases=4 Linecode=102 Length=0.500 Units=m
New Line.cktbk45 Bus1=38_8.1.2.3.4 Bus2=2660.1.2.3.4 phases=4 Linecode=102 Length=0.500 Units=m
New Line.cktbk46 Bus1=38_11.1.2.3.4 Bus2=2661.1.2.3.4 phases=4 Linecode=102 Length=0.500 Units=m
New Line.cktbk47 Bus1=38_12.1.2.3.4 Bus2=2662.1.2.3.4 phases=4 Linecode=102 Length=0.500 Units=m
New Line.cktbk48 Bus1=39_1.1.2.3.4 Bus2=2663.1.2.3.4 phases=4 Linecode=102 Length=0.500 Units=m
New Line.cktbk49 Bus1=39_2.1.2.3.4 Bus2=2664.1.2.3.4 phases=4 Linecode=102 Length=0.500 Units=m
New Line.cktbk50 Bus1=39_5.1.2.3.4 Bus2=2665.1.2.3.4 phases=4 Linecode=102 Length=0.500 Units=m
New Line.cktbk51 Bus1=39_7.1.2.3.4 Bus2=2666.1.2.3.4 phases=4 Linecode=102 Length=0.500 Units=m
New Line.cktbk52 Bus1=39_8.1.2.3.4 Bus2=2667.1.2.3.4 phases=4 Linecode=102 Length=0.500 Units=m
New Line.cktbk53 Bus1=40_1.1.2.3.4 Bus2=2623.1.2.3.4 phases=4 Linecode=102 Length=0.500 Units=m
New Line.cktbk54 Bus1=40_2.1.2.3.4 Bus2=2624.1.2.3.4 phases=4 Linecode=102 Length=0.500 Units=m
New Line.cktbk55 Bus1=40_3.1.2.3.4 Bus2=2625.1.2.3.4 phases=4 Linecode=102 Length=0.500 Units=m
New Line.cktbk56 Bus1=40_5.1.2.3.4 Bus2=2668.1.2.3.4 phases=4 Linecode=102 Length=0.500 Units=m
New Line.cktbk57 Bus1=40_8.1.2.3.4 Bus2=2673.1.2.3.4 phases=4 Linecode=102 Length=0.500 Units=m
New Line.cktbk58 Bus1=41_3.1.2.3.4 Bus2=2600.1.2.3.4 phases=4 Linecode=102 Length=0.500 Units=m
New Line.cktbk59 Bus1=41_6.1.2.3.4 Bus2=2601.1.2.3.4 phases=4 Linecode=102 Length=0.500 Units=m
New Line.cktbk60 Bus1=41_7.1.2.3.4 Bus2=2606.1.2.3.4 phases=4 Linecode=102 Length=0.500 Units=m
New Line.cktbk61 Bus1=41_8.1.2.3.4 Bus2=2607.1.2.3.4 phases=4 Linecode=102 Length=0.500 Units=m
New Line.cktbk62 Bus1=42_3.1.2.3.4 Bus2=2740.1.2.3.4 phases=4 Linecode=102 Length=0.500 Units=m
New Line.cktbk63 Bus1=42_5.1.2.3.4 Bus2=2744.1.2.3.4 phases=4 Linecode=102 Length=0.500 Units=m
New Line.cktbk64 Bus1=42_6.1.2.3.4 Bus2=2746.1.2.3.4 phases=4 Linecode=102 Length=0.500 Units=m
New Line.cktbk65 Bus1=42_7.1.2.3.4 Bus2=2747.1.2.3.4 phases=4 Linecode=102 Length=0.500 Units=m
New Line.cktbk66 Bus1=42_9.1.2.3.4 Bus2=2741.1.2.3.4 phases=4 Linecode=102 Length=0.500 Units=m
New Line.cktbk67 Bus1=42_10.1.2.3.4 Bus2=2748.1.2.3.4 phases=4 Linecode=102 Length=0.500 Units=m
New Line.cktbk68 Bus1=42_11.1.2.3.4 Bus2=2749.1.2.3.4 phases=4 Linecode=102 Length=0.500 Units=m
New Line.cktbk69 Bus1=42_12.1.2.3.4 Bus2=2742.1.2.3.4 phases=4 Linecode=102 Length=0.500 Units=m
New Line.cktbk70 Bus1=43_1.1.2.3.4 Bus2=2874.1.2.3.4 phases=4 Linecode=102 Length=0.500 Units=m
New Line.cktbk71 Bus1=43_2.1.2.3.4 Bus2=2875.1.2.3.4 phases=4 Linecode=102 Length=0.500 Units=m
New Line.cktbk72 Bus1=43_4.1.2.3.4 Bus2=2876.1.2.3.4 phases=4 Linecode=102 Length=0.500 Units=m
New Line.cktbk73 Bus1=43_5.1.2.3.4 Bus2=2877.1.2.3.4 phases=4 Linecode=102 Length=0.500 Units=m
New Line.cktbk74 Bus1=43_6.1.2.3.4 Bus2=2878.1.2.3.4 phases=4 Linecode=102 Length=0.500 Units=m
New Line.cktbk75 Bus1=43_7.1.2.3.4 Bus2=2879.1.2.3.4 phases=4 Linecode=102 Length=0.500 Units=m
New Line.cktbk76 Bus1=43_9.1.2.3.4 Bus2=2691.1.2.3.4 phases=4 Linecode=102 Length=0.500 Units=m
New Line.cktbk77 Bus1=44_2.1.2.3.4 Bus2=2578.1.2.3.4 phases=4 Linecode=102 Length=0.500 Units=m
New Line.cktbk78 Bus1=44_3.1.2.3.4 Bus2=2579.1.2.3.4 phases=4 Linecode=102 Length=0.500 Units=m
New Line.cktbk79 Bus1=44_4.1.2.3.4 Bus2=2580.1.2.3.4 phases=4 Linecode=102 Length=0.500 Units=m
New Line.cktbk80 Bus1=44_5.1.2.3.4 Bus2=2554.1.2.3.4 phases=4 Linecode=102 Length=0.500 Units=m
New Line.cktbk81 Bus1=44_6.1.2.3.4 Bus2=2587.1.2.3.4 phases=4 Linecode=102 Length=0.500 Units=m
New Line.cktbk82 Bus1=44_7.1.2.3.4 Bus2=2588.1.2.3.4 phases=4 Linecode=102 Length=0.500 Units=m
New Line.cktbk83 Bus1=45_1.1.2.3.4 Bus2=2592.1.2.3.4 phases=4 Linecode=102 Length=0.500 Units=m
New Line.cktbk84 Bus1=45_2.1.2.3.4 Bus2=2589.1.2.3.4 phases=4 Linecode=102 Length=0.500 Units=m
New Line.cktbk85 Bus1=45_3.1.2.3.4 Bus2=2590.1.2.3.4 phases=4 Linecode=102 Length=0.500 Units=m
New Line.cktbk86 Bus1=45_5.1.2.3.4 Bus2=2593.1.2.3.4 phases=4 Linecode=102 Length=0.500 Units=m
New Line.cktbk87 Bus1=45_7.1.2.3.4 Bus2=2594.1.2.3.4 phases=4 Linecode=102 Length=0.500 Units=m
New Line.cktbk88 Bus1=45_8.1.2.3.4 Bus2=2597.1.2.3.4 phases=4 Linecode=102 Length=0.500 Units=m
New Line.cktbk89 Bus1=46_1.1.2.3.4 Bus2=2692.1.2.3.4 phases=4 Linecode=102 Length=0.500 Units=m
New Line.cktbk90 Bus1=46_2.1.2.3.4 Bus2=2699.1.2.3.4 phases=4 Linecode=102 Length=0.500 Units=m
New Line.cktbk91 Bus1=46_3.1.2.3.4 Bus2=2700.1.2.3.4 phases=4 Linecode=102 Length=0.500 Units=m
New Line.cktbk92 Bus1=46_4.1.2.3.4 Bus2=2695.1.2.3.4 phases=4 Linecode=102 Length=0.500 Units=m
New Line.cktbk93 Bus1=46_7.1.2.3.4 Bus2=2701.1.2.3.4 phases=4 Linecode=102 Length=0.500 Units=m
New Line.cktbk94 Bus1=46_8.1.2.3.4 Bus2=2702.1.2.3.4 phases=4 Linecode=102 Length=0.500 Units=m
New Line.cktbk95 Bus1=47_1.1.2.3.4 Bus2=2719.1.2.3.4 phases=4 Linecode=102 Length=0.500 Units=m
New Line.cktbk96 Bus1=47_3.1.2.3.4 Bus2=2720.1.2.3.4 phases=4 Linecode=102 Length=0.500 Units=m
New Line.cktbk97 Bus1=47_4.1.2.3.4 Bus2=2721.1.2.3.4 phases=4 Linecode=102 Length=0.500 Units=m
New Line.cktbk98 Bus1=47_5.1.2.3.4 Bus2=2873.1.2.3.4 phases=4 Linecode=102 Length=0.500 Units=m
New Line.cktbk99 Bus1=47_8.1.2.3.4 Bus2=2872.1.2.3.4 phases=4 Linecode=102 Length=0.500 Units=m
New Line.cktbk100 Bus1=48_3.1.2.3.4 Bus2=2706.1.2.3.4 phases=4 Linecode=102 Length=0.500 Units=m
New Line.cktbk101 Bus1=48_4.1.2.3.4 Bus2=2707.1.2.3.4 phases=4 Linecode=102 Length=0.500 Units=m
New Line.cktbk102 Bus1=48_5.1.2.3.4 Bus2=2711.1.2.3.4 phases=4 Linecode=102 Length=0.500 Units=m
New Line.cktbk103 Bus1=48_6.1.2.3.4 Bus2=2708.1.2.3.4 phases=4 Linecode=102 Length=0.500 Units=m
New Line.cktbk104 Bus1=48_7.1.2.3.4 Bus2=2709.1.2.3.4 phases=4 Linecode=102 Length=0.500 Units=m
New Line.cktbk105 Bus1=48_8.1.2.3.4 Bus2=2710.1.2.3.4 phases=4 Linecode=102 Length=0.500 Units=m
New Line.cktbk106 Bus1=49_5.1.2.3.4 Bus2=2716.1.2.3.4 phases=4 Linecode=102 Length=0.500 Units=m
New Line.cktbk107 Bus1=49_7.1.2.3.4 Bus2=2715.1.2.3.4 phases=4 Linecode=102 Length=0.500 Units=m
New Line.cktbk108 Bus1=49_8.1.2.3.4 Bus2=2712.1.2.3.4 phases=4 Linecode=102 Length=0.500 Units=m
New Line.cktbk109 Bus1=50_1.1.2.3.4 Bus2=2723.1.2.3.4 phases=4 Linecode=102 Length=0.500 Units=m
New Line.cktbk110 Bus1=50_2.1.2.3.4 Bus2=2728.1.2.3.4 phases=4 Linecode=102 Length=0.500 Units=m
New Line.cktbk111 Bus1=50_3.1.2.3.4 Bus2=2734.1.2.3.4 phases=4 Linecode=102 Length=0.500 Units=m
New Line.cktbk112 Bus1=50_4.1.2.3.4 Bus2=2736.1.2.3.4 phases=4 Linecode=102 Length=0.500 Units=m
New Line.cktbk113 Bus1=50_5.1.2.3.4 Bus2=2733.1.2.3.4 phases=4 Linecode=102 Length=0.500 Units=m
New Line.cktbk114 Bus1=50_6.1.2.3.4 Bus2=2732.1.2.3.4 phases=4 Linecode=102 Length=0.500 Units=m
New Line.cktbk115 Bus1=50_7.1.2.3.4 Bus2=2731.1.2.3.4 phases=4 Linecode=102 Length=0.500 Units=m
New Line.cktbk116 Bus1=50_8.1.2.3.4 Bus2=2730.1.2.3.4 phases=4 Linecode=102 Length=0.500 Units=m
New Line.cktbk117 Bus1=51_1.1.2.3.4 Bus2=2758.1.2.3.4 phases=4 Linecode=102 Length=0.500 Units=m
New Line.cktbk118 Bus1=51_2.1.2.3.4 Bus2=2759.1.2.3.4 phases=4 Linecode=102 Length=0.500 Units=m
New Line.cktbk119 Bus1=51_3.1.2.3.4 Bus2=2760.1.2.3.4 phases=4 Linecode=102 Length=0.500 Units=m
New Line.cktbk120 Bus1=51_4.1.2.3.4 Bus2=2765.1.2.3.4 phases=4 Linecode=102 Length=0.500 Units=m
New Line.cktbk121 Bus1=51_7.1.2.3.4 Bus2=2772.1.2.3.4 phases=4 Linecode=102 Length=0.500 Units=m
New Line.cktbk122 Bus1=51_8.1.2.3.4 Bus2=2773.1.2.3.4 phases=4 Linecode=102 Length=0.500 Units=m
New Line.cktbk123 Bus1=52_3.1.2.3.4 Bus2=2801.1.2.3.4 phases=4 Linecode=102 Length=0.500 Units=m
New Line.cktbk124 Bus1=52_4.1.2.3.4 Bus2=2803.1.2.3.4 phases=4 Linecode=102 Length=0.500 Units=m
New Line.cktbk125 Bus1=52_5.1.2.3.4 Bus2=2807.1.2.3.4 phases=4 Linecode=102 Length=0.500 Units=m
New Line.cktbk126 Bus1=52_6.1.2.3.4 Bus2=2808.1.2.3.4 phases=4 Linecode=102 Length=0.500 Units=m
New Line.cktbk127 Bus1=52_7.1.2.3.4 Bus2=2810.1.2.3.4 phases=4 Linecode=102 Length=0.500 Units=m
New Line.cktbk128 Bus1=52_8.1.2.3.4 Bus2=2811.1.2.3.4 phases=4 Linecode=102 Length=0.500 Units=m
New Line.cktbk129 Bus1=53_1.1.2.3.4 Bus2=2774.1.2.3.4 phases=4 Linecode=102 Length=0.500 Units=m
New Line.cktbk130 Bus1=53_2.1.2.3.4 Bus2=2775.1.2.3.4 phases=4 Linecode=102 Length=0.500 Units=m
New Line.cktbk131 Bus1=53_3.1.2.3.4 Bus2=2779.1.2.3.4 phases=4 Linecode=102 Length=0.500 Units=m
New Line.cktbk132 Bus1=53_4.1.2.3.4 Bus2=2780.1.2.3.4 phases=4 Linecode=102 Length=0.500 Units=m
New Line.cktbk133 Bus1=53_5.1.2.3.4 Bus2=2785.1.2.3.4 phases=4 Linecode=102 Length=0.500 Units=m
New Line.cktbk134 Bus1=53_7.1.2.3.4 Bus2=2789.1.2.3.4 phases=4 Linecode=102 Length=0.500 Units=m
New Line.cktbk135 Bus1=53_8.1.2.3.4 Bus2=2794.1.2.3.4 phases=4 Linecode=102 Length=0.500 Units=m
New Line.cktbk136 Bus1=54_4.1.2.3.4 Bus2=2795.1.2.3.4 phases=4 Linecode=102 Length=0.500 Units=m
New Line.cktbk137 Bus1=54_5.1.2.3.4 Bus2=2796.1.2.3.4 phases=4 Linecode=102 Length=0.500 Units=m
New Line.cktbk138 Bus1=54_6.1.2.3.4 Bus2=2797.1.2.3.4 phases=4 Linecode=102 Length=0.500 Units=m
New Line.cktbk139 Bus1=54_7.1.2.3.4 Bus2=2798.1.2.3.4 phases=4 Linecode=102 Length=0.500 Units=m
New Line.cktbk140 Bus1=54_8.1.2.3.4 Bus2=2800.1.2.3.4 phases=4 Linecode=102 Length=0.500 Units=m
New Line.cktbk141 Bus1=55_1.1.2.3.4 Bus2=2825.1.2.3.4 phases=4 Linecode=102 Length=0.500 Units=m
New Line.cktbk142 Bus1=55_2.1.2.3.4 Bus2=2824.1.2.3.4 phases=4 Linecode=102 Length=0.500 Units=m
New Line.cktbk143 Bus1=55_3.1.2.3.4 Bus2=2818.1.2.3.4 phases=4 Linecode=102 Length=0.500 Units=m
New Line.cktbk144 Bus1=55_4.1.2.3.4 Bus2=2812.1.2.3.4 phases=4 Linecode=102 Length=0.500 Units=m
New Line.cktbk145 Bus1=56_3.1.2.3.4 Bus2=2840.1.2.3.4 phases=4 Linecode=102 Length=0.500 Units=m
New Line.cktbk146 Bus1=56_4.1.2.3.4 Bus2=2844.1.2.3.4 phases=4 Linecode=102 Length=0.500 Units=m
New Line.cktbk147 Bus1=56_5.1.2.3.4 Bus2=2848.1.2.3.4 phases=4 Linecode=102 Length=0.500 Units=m
New Line.cktbk148 Bus1=56_6.1.2.3.4 Bus2=2851.1.2.3.4 phases=4 Linecode=102 Length=0.500 Units=m
New Line.cktbk149 Bus1=57_1.1.2.3.4 Bus2=2859.1.2.3.4 phases=4 Linecode=102 Length=0.500 Units=m
New Line.cktbk150 Bus1=57_2.1.2.3.4 Bus2=2860.1.2.3.4 phases=4 Linecode=102 Length=0.500 Units=m
New Line.cktbk151 Bus1=57_3.1.2.3.4 Bus2=2861.1.2.3.4 phases=4 Linecode=102 Length=0.500 Units=m
New Line.cktbk152 Bus1=57_4.1.2.3.4 Bus2=2862.1.2.3.4 phases=4 Linecode=102 Length=0.500 Units=m