New Loadshape.Shape_1 npts=481 minterval=60 mult=(file=day_20_profile\shape_1.csv) useactual=true
New Loadshape.Shape_2 npts=481 minterval=60 mult=(file=day_20_profile\shape_2.csv) useactual=true
New Loadshape.Shape_3 npts=481 minterval=60 mult=(file=day_20_profile\shape_3.csv) useactual=true
New Loadshape.Shape_4 npts=481 minterval=60 mult=(file=day_20_profile\shape_4.csv) useactual=true
New Loadshape.Shape_5 npts=481 minterval=60 mult=(file=day_20_profile\shape_5.csv) useactual=true
New Loadshape.Shape_6 npts=481 minterval=60 mult=(file=day_20_profile\shape_6.csv) useactual=true
New Loadshape.Shape_7 npts=481 minterval=60 mult=(file=day_20_profile\shape_7.csv) useactual=true
New Loadshape.Shape_8 npts=481 minterval=60 mult=(file=day_20_profile\shape_8.csv) useactual=true
New Loadshape.Shape_9 npts=481 minterval=60 mult=(file=day_20_profile\shape_9.csv) useactual=true
New Loadshape.Shape_10 npts=481 minterval=60 mult=(file=day_20_profile\shape_10.csv) useactual=true
New Loadshape.Shape_11 npts=481 minterval=60 mult=(file=day_20_profile\shape_11.csv) useactual=true
New Loadshape.Shape_12 npts=481 minterval=60 mult=(file=day_20_profile\shape_12.csv) useactual=true
New Loadshape.Shape_13 npts=481 minterval=60 mult=(file=day_20_profile\shape_13.csv) useactual=true
New Loadshape.Shape_14 npts=481 minterval=60 mult=(file=day_20_profile\shape_14.csv) useactual=true
New Loadshape.Shape_15 npts=481 minterval=60 mult=(file=day_20_profile\shape_15.csv) useactual=true
New Loadshape.Shape_16 npts=481 minterval=60 mult=(file=day_20_profile\shape_16.csv) useactual=true
New Loadshape.Shape_17 npts=481 minterval=60 mult=(file=day_20_profile\shape_17.csv) useactual=true
New Loadshape.Shape_18 npts=481 minterval=60 mult=(file=day_20_profile\shape_18.csv) useactual=true
New Loadshape.Shape_19 npts=481 minterval=60 mult=(file=day_20_profile\shape_19.csv) useactual=true
New Loadshape.Shape_20 npts=481 minterval=60 mult=(file=day_20_profile\shape_20.csv) useactual=true
New Loadshape.Shape_21 npts=481 minterval=60 mult=(file=day_20_profile\shape_21.csv) useactual=true
New Loadshape.Shape_22 npts=481 minterval=60 mult=(file=day_20_profile\shape_22.csv) useactual=true
New Loadshape.Shape_23 npts=481 minterval=60 mult=(file=day_20_profile\shape_23.csv) useactual=true
New Loadshape.Shape_24 npts=481 minterval=60 mult=(file=day_20_profile\shape_24.csv) useactual=true
New Loadshape.Shape_25 npts=481 minterval=60 mult=(file=day_20_profile\shape_25.csv) useactual=true
New Loadshape.Shape_26 npts=481 minterval=60 mult=(file=day_20_profile\shape_26.csv) useactual=true
New Loadshape.Shape_27 npts=481 minterval=60 mult=(file=day_20_profile\shape_27.csv) useactual=true
New Loadshape.Shape_28 npts=481 minterval=60 mult=(file=day_20_profile\shape_28.csv) useactual=true
New Loadshape.Shape_29 npts=481 minterval=60 mult=(file=day_20_profile\shape_29.csv) useactual=true
New Loadshape.Shape_30 npts=481 minterval=60 mult=(file=day_20_profile\shape_30.csv) useactual=true
New Loadshape.Shape_31 npts=481 minterval=60 mult=(file=day_20_profile\shape_31.csv) useactual=true
New Loadshape.Shape_32 npts=481 minterval=60 mult=(file=day_20_profile\shape_32.csv) useactual=true
New Loadshape.Shape_33 npts=481 minterval=60 mult=(file=day_20_profile\shape_33.csv) useactual=true
New Loadshape.Shape_34 npts=481 minterval=60 mult=(file=day_20_profile\shape_34.csv) useactual=true
New Loadshape.Shape_35 npts=481 minterval=60 mult=(file=day_20_profile\shape_35.csv) useactual=true
New Loadshape.Shape_36 npts=481 minterval=60 mult=(file=day_20_profile\shape_36.csv) useactual=true
New Loadshape.Shape_37 npts=481 minterval=60 mult=(file=day_20_profile\shape_37.csv) useactual=true
New Loadshape.Shape_38 npts=481 minterval=60 mult=(file=day_20_profile\shape_38.csv) useactual=true
New Loadshape.Shape_39 npts=481 minterval=60 mult=(file=day_20_profile\shape_39.csv) useactual=true
New Loadshape.Shape_40 npts=481 minterval=60 mult=(file=day_20_profile\shape_40.csv) useactual=true
New Loadshape.Shape_41 npts=481 minterval=60 mult=(file=day_20_profile\shape_41.csv) useactual=true
New Loadshape.Shape_42 npts=481 minterval=60 mult=(file=day_20_profile\shape_42.csv) useactual=true
New Loadshape.Shape_43 npts=481 minterval=60 mult=(file=day_20_profile\shape_43.csv) useactual=true
New Loadshape.Shape_44 npts=481 minterval=60 mult=(file=day_20_profile\shape_44.csv) useactual=true
New Loadshape.Shape_45 npts=481 minterval=60 mult=(file=day_20_profile\shape_45.csv) useactual=true
New Loadshape.Shape_46 npts=481 minterval=60 mult=(file=day_20_profile\shape_46.csv) useactual=true
New Loadshape.Shape_47 npts=481 minterval=60 mult=(file=day_20_profile\shape_47.csv) useactual=true
New Loadshape.Shape_48 npts=481 minterval=60 mult=(file=day_20_profile\shape_48.csv) useactual=true
New Loadshape.Shape_49 npts=481 minterval=60 mult=(file=day_20_profile\shape_49.csv) useactual=true
New Loadshape.Shape_50 npts=481 minterval=60 mult=(file=day_20_profile\shape_50.csv) useactual=true
New Loadshape.Shape_51 npts=481 minterval=60 mult=(file=day_20_profile\shape_51.csv) useactual=true
New Loadshape.Shape_52 npts=481 minterval=60 mult=(file=day_20_profile\shape_52.csv) useactual=true
New Loadshape.Shape_53 npts=481 minterval=60 mult=(file=day_20_profile\shape_53.csv) useactual=true
New Loadshape.Shape_54 npts=481 minterval=60 mult=(file=day_20_profile\shape_54.csv) useactual=true
New Loadshape.Shape_55 npts=481 minterval=60 mult=(file=day_20_profile\shape_55.csv) useactual=true
New Loadshape.Shape_56 npts=481 minterval=60 mult=(file=day_20_profile\shape_56.csv) useactual=true
New Loadshape.Shape_57 npts=481 minterval=60 mult=(file=day_20_profile\shape_57.csv) useactual=true
New Loadshape.Shape_58 npts=481 minterval=60 mult=(file=day_20_profile\shape_58.csv) useactual=true
New Loadshape.Shape_59 npts=481 minterval=60 mult=(file=day_20_profile\shape_59.csv) useactual=true
New Loadshape.Shape_60 npts=481 minterval=60 mult=(file=day_20_profile\shape_60.csv) useactual=true
New Loadshape.Shape_61 npts=481 minterval=60 mult=(file=day_20_profile\shape_61.csv) useactual=true
New Loadshape.Shape_62 npts=481 minterval=60 mult=(file=day_20_profile\shape_62.csv) useactual=true
New Loadshape.Shape_63 npts=481 minterval=60 mult=(file=day_20_profile\shape_63.csv) useactual=true
New Loadshape.Shape_64 npts=481 minterval=60 mult=(file=day_20_profile\shape_64.csv) useactual=true
New Loadshape.Shape_65 npts=481 minterval=60 mult=(file=day_20_profile\shape_65.csv) useactual=true
New Loadshape.Shape_66 npts=481 minterval=60 mult=(file=day_20_profile\shape_66.csv) useactual=true
New Loadshape.Shape_67 npts=481 minterval=60 mult=(file=day_20_profile\shape_67.csv) useactual=true
New Loadshape.Shape_68 npts=481 minterval=60 mult=(file=day_20_profile\shape_68.csv) useactual=true
New Loadshape.Shape_69 npts=481 minterval=60 mult=(file=day_20_profile\shape_69.csv) useactual=true
New Loadshape.Shape_70 npts=481 minterval=60 mult=(file=day_20_profile\shape_70.csv) useactual=true
New Loadshape.Shape_71 npts=481 minterval=60 mult=(file=day_20_profile\shape_71.csv) useactual=true
New Loadshape.Shape_72 npts=481 minterval=60 mult=(file=day_20_profile\shape_72.csv) useactual=true
New Loadshape.Shape_73 npts=481 minterval=60 mult=(file=day_20_profile\shape_73.csv) useactual=true
New Loadshape.Shape_74 npts=481 minterval=60 mult=(file=day_20_profile\shape_74.csv) useactual=true
New Loadshape.Shape_75 npts=481 minterval=60 mult=(file=day_20_profile\shape_75.csv) useactual=true
New Loadshape.Shape_76 npts=481 minterval=60 mult=(file=day_20_profile\shape_76.csv) useactual=true
New Loadshape.Shape_77 npts=481 minterval=60 mult=(file=day_20_profile\shape_77.csv) useactual=true
New Loadshape.Shape_78 npts=481 minterval=60 mult=(file=day_20_profile\shape_78.csv) useactual=true
New Loadshape.Shape_79 npts=481 minterval=60 mult=(file=day_20_profile\shape_79.csv) useactual=true
New Loadshape.Shape_80 npts=481 minterval=60 mult=(file=day_20_profile\shape_80.csv) useactual=true
New Loadshape.Shape_81 npts=481 minterval=60 mult=(file=day_20_profile\shape_81.csv) useactual=true
New Loadshape.Shape_82 npts=481 minterval=60 mult=(file=day_20_profile\shape_82.csv) useactual=true
New Loadshape.Shape_83 npts=481 minterval=60 mult=(file=day_20_profile\shape_83.csv) useactual=true
New Loadshape.Shape_84 npts=481 minterval=60 mult=(file=day_20_profile\shape_84.csv) useactual=true
New Loadshape.Shape_85 npts=481 minterval=60 mult=(file=day_20_profile\shape_85.csv) useactual=true
New Loadshape.Shape_86 npts=481 minterval=60 mult=(file=day_20_profile\shape_86.csv) useactual=true
New Loadshape.Shape_87 npts=481 minterval=60 mult=(file=day_20_profile\shape_87.csv) useactual=true
New Loadshape.Shape_88 npts=481 minterval=60 mult=(file=day_20_profile\shape_88.csv) useactual=true
New Loadshape.Shape_89 npts=481 minterval=60 mult=(file=day_20_profile\shape_89.csv) useactual=true
New Loadshape.Shape_90 npts=481 minterval=60 mult=(file=day_20_profile\shape_90.csv) useactual=true
New Loadshape.Shape_91 npts=481 minterval=60 mult=(file=day_20_profile\shape_91.csv) useactual=true
New Loadshape.Shape_92 npts=481 minterval=60 mult=(file=day_20_profile\shape_92.csv) useactual=true
New Loadshape.Shape_93 npts=481 minterval=60 mult=(file=day_20_profile\shape_93.csv) useactual=true
New Loadshape.Shape_94 npts=481 minterval=60 mult=(file=day_20_profile\shape_94.csv) useactual=true
New Loadshape.Shape_95 npts=481 minterval=60 mult=(file=day_20_profile\shape_95.csv) useactual=true
New Loadshape.Shape_96 npts=481 minterval=60 mult=(file=day_20_profile\shape_96.csv) useactual=true
New Loadshape.Shape_97 npts=481 minterval=60 mult=(file=day_20_profile\shape_97.csv) useactual=true
New Loadshape.Shape_98 npts=481 minterval=60 mult=(file=day_20_profile\shape_98.csv) useactual=true
New Loadshape.Shape_99 npts=481 minterval=60 mult=(file=day_20_profile\shape_99.csv) useactual=true
New Loadshape.Shape_100 npts=481 minterval=60 mult=(file=day_20_profile\shape_100.csv) useactual=true
New Loadshape.Shape_101 npts=481 minterval=60 mult=(file=day_20_profile\shape_101.csv) useactual=true
New Loadshape.Shape_102 npts=481 minterval=60 mult=(file=day_20_profile\shape_102.csv) useactual=true
New Loadshape.Shape_103 npts=481 minterval=60 mult=(file=day_20_profile\shape_103.csv) useactual=true
New Loadshape.Shape_104 npts=481 minterval=60 mult=(file=day_20_profile\shape_104.csv) useactual=true
New Loadshape.Shape_105 npts=481 minterval=60 mult=(file=day_20_profile\shape_105.csv) useactual=true
New Loadshape.Shape_106 npts=481 minterval=60 mult=(file=day_20_profile\shape_106.csv) useactual=true
New Loadshape.Shape_107 npts=481 minterval=60 mult=(file=day_20_profile\shape_107.csv) useactual=true
New Loadshape.Shape_108 npts=481 minterval=60 mult=(file=day_20_profile\shape_108.csv) useactual=true
New Loadshape.Shape_109 npts=481 minterval=60 mult=(file=day_20_profile\shape_109.csv) useactual=true
New Loadshape.Shape_110 npts=481 minterval=60 mult=(file=day_20_profile\shape_110.csv) useactual=true
New Loadshape.Shape_111 npts=481 minterval=60 mult=(file=day_20_profile\shape_111.csv) useactual=true
New Loadshape.Shape_112 npts=481 minterval=60 mult=(file=day_20_profile\shape_112.csv) useactual=true
New Loadshape.Shape_113 npts=481 minterval=60 mult=(file=day_20_profile\shape_113.csv) useactual=true
New Loadshape.Shape_114 npts=481 minterval=60 mult=(file=day_20_profile\shape_114.csv) useactual=true
New Loadshape.Shape_115 npts=481 minterval=60 mult=(file=day_20_profile\shape_115.csv) useactual=true
New Loadshape.Shape_116 npts=481 minterval=60 mult=(file=day_20_profile\shape_116.csv) useactual=true
New Loadshape.Shape_117 npts=481 minterval=60 mult=(file=day_20_profile\shape_117.csv) useactual=true
New Loadshape.Shape_118 npts=481 minterval=60 mult=(file=day_20_profile\shape_118.csv) useactual=true
New Loadshape.Shape_119 npts=481 minterval=60 mult=(file=day_20_profile\shape_119.csv) useactual=true
New Loadshape.Shape_120 npts=481 minterval=60 mult=(file=day_20_profile\shape_120.csv) useactual=true
New Loadshape.Shape_121 npts=481 minterval=60 mult=(file=day_20_profile\shape_121.csv) useactual=true
New Loadshape.Shape_122 npts=481 minterval=60 mult=(file=day_20_profile\shape_122.csv) useactual=true
New Loadshape.Shape_123 npts=481 minterval=60 mult=(file=day_20_profile\shape_123.csv) useactual=true
New Loadshape.Shape_124 npts=481 minterval=60 mult=(file=day_20_profile\shape_124.csv) useactual=true
New Loadshape.Shape_125 npts=481 minterval=60 mult=(file=day_20_profile\shape_125.csv) useactual=true
New Loadshape.Shape_126 npts=481 minterval=60 mult=(file=day_20_profile\shape_126.csv) useactual=true
New Loadshape.Shape_127 npts=481 minterval=60 mult=(file=day_20_profile\shape_127.csv) useactual=true
New Loadshape.Shape_128 npts=481 minterval=60 mult=(file=day_20_profile\shape_128.csv) useactual=true
New Loadshape.Shape_129 npts=481 minterval=60 mult=(file=day_20_profile\shape_129.csv) useactual=true
New Loadshape.Shape_130 npts=481 minterval=60 mult=(file=day_20_profile\shape_130.csv) useactual=true
New Loadshape.Shape_131 npts=481 minterval=60 mult=(file=day_20_profile\shape_131.csv) useactual=true
New Loadshape.Shape_132 npts=481 minterval=60 mult=(file=day_20_profile\shape_132.csv) useactual=true
New Loadshape.Shape_133 npts=481 minterval=60 mult=(file=day_20_profile\shape_133.csv) useactual=true
New Loadshape.Shape_134 npts=481 minterval=60 mult=(file=day_20_profile\shape_134.csv) useactual=true
New Loadshape.Shape_135 npts=481 minterval=60 mult=(file=day_20_profile\shape_135.csv) useactual=true
New Loadshape.Shape_136 npts=481 minterval=60 mult=(file=day_20_profile\shape_136.csv) useactual=true
New Loadshape.Shape_137 npts=481 minterval=60 mult=(file=day_20_profile\shape_137.csv) useactual=true
New Loadshape.Shape_138 npts=481 minterval=60 mult=(file=day_20_profile\shape_138.csv) useactual=true
New Loadshape.Shape_139 npts=481 minterval=60 mult=(file=day_20_profile\shape_139.csv) useactual=true
New Loadshape.Shape_140 npts=481 minterval=60 mult=(file=day_20_profile\shape_140.csv) useactual=true
New Loadshape.Shape_141 npts=481 minterval=60 mult=(file=day_20_profile\shape_141.csv) useactual=true
New Loadshape.Shape_142 npts=481 minterval=60 mult=(file=day_20_profile\shape_142.csv) useactual=true
New Loadshape.Shape_143 npts=481 minterval=60 mult=(file=day_20_profile\shape_143.csv) useactual=true
New Loadshape.Shape_144 npts=481 minterval=60 mult=(file=day_20_profile\shape_144.csv) useactual=true
New Loadshape.Shape_145 npts=481 minterval=60 mult=(file=day_20_profile\shape_145.csv) useactual=true
New Loadshape.Shape_146 npts=481 minterval=60 mult=(file=day_20_profile\shape_146.csv) useactual=true
New Loadshape.Shape_147 npts=481 minterval=60 mult=(file=day_20_profile\shape_147.csv) useactual=true
New Loadshape.Shape_148 npts=481 minterval=60 mult=(file=day_20_profile\shape_148.csv) useactual=true
New Loadshape.Shape_149 npts=481 minterval=60 mult=(file=day_20_profile\shape_149.csv) useactual=true
New Loadshape.Shape_150 npts=481 minterval=60 mult=(file=day_20_profile\shape_150.csv) useactual=true
New Loadshape.Shape_151 npts=481 minterval=60 mult=(file=day_20_profile\shape_151.csv) useactual=true
New Loadshape.Shape_152 npts=481 minterval=60 mult=(file=day_20_profile\shape_152.csv) useactual=true
New Loadshape.Shape_153 npts=481 minterval=60 mult=(file=day_20_profile\shape_153.csv) useactual=true
New Loadshape.Shape_154 npts=481 minterval=60 mult=(file=day_20_profile\shape_154.csv) useactual=true
New Loadshape.Shape_155 npts=481 minterval=60 mult=(file=day_20_profile\shape_155.csv) useactual=true
New Loadshape.Shape_156 npts=481 minterval=60 mult=(file=day_20_profile\shape_156.csv) useactual=true
New Loadshape.Shape_157 npts=481 minterval=60 mult=(file=day_20_profile\shape_157.csv) useactual=true
New Loadshape.Shape_158 npts=481 minterval=60 mult=(file=day_20_profile\shape_158.csv) useactual=true
New Loadshape.Shape_159 npts=481 minterval=60 mult=(file=day_20_profile\shape_159.csv) useactual=true
New Loadshape.Shape_160 npts=481 minterval=60 mult=(file=day_20_profile\shape_160.csv) useactual=true
New Loadshape.Shape_161 npts=481 minterval=60 mult=(file=day_20_profile\shape_161.csv) useactual=true
New Loadshape.Shape_162 npts=481 minterval=60 mult=(file=day_20_profile\shape_162.csv) useactual=true
New Loadshape.Shape_163 npts=481 minterval=60 mult=(file=day_20_profile\shape_163.csv) useactual=true
New Loadshape.Shape_164 npts=481 minterval=60 mult=(file=day_20_profile\shape_164.csv) useactual=true
New Loadshape.Shape_165 npts=481 minterval=60 mult=(file=day_20_profile\shape_165.csv) useactual=true
New Loadshape.Shape_166 npts=481 minterval=60 mult=(file=day_20_profile\shape_166.csv) useactual=true
New Loadshape.Shape_167 npts=481 minterval=60 mult=(file=day_20_profile\shape_167.csv) useactual=true
New Loadshape.Shape_168 npts=481 minterval=60 mult=(file=day_20_profile\shape_168.csv) useactual=true
New Loadshape.Shape_169 npts=481 minterval=60 mult=(file=day_20_profile\shape_169.csv) useactual=true
New Loadshape.Shape_170 npts=481 minterval=60 mult=(file=day_20_profile\shape_170.csv) useactual=true
New Loadshape.Shape_171 npts=481 minterval=60 mult=(file=day_20_profile\shape_171.csv) useactual=true
New Loadshape.Shape_172 npts=481 minterval=60 mult=(file=day_20_profile\shape_172.csv) useactual=true
New Loadshape.Shape_173 npts=481 minterval=60 mult=(file=day_20_profile\shape_173.csv) useactual=true
New Loadshape.Shape_174 npts=481 minterval=60 mult=(file=day_20_profile\shape_174.csv) useactual=true
New Loadshape.Shape_175 npts=481 minterval=60 mult=(file=day_20_profile\shape_175.csv) useactual=true
New Loadshape.Shape_176 npts=481 minterval=60 mult=(file=day_20_profile\shape_176.csv) useactual=true
New Loadshape.Shape_177 npts=481 minterval=60 mult=(file=day_20_profile\shape_177.csv) useactual=true
New Loadshape.Shape_178 npts=481 minterval=60 mult=(file=day_20_profile\shape_178.csv) useactual=true
New Loadshape.Shape_179 npts=481 minterval=60 mult=(file=day_20_profile\shape_179.csv) useactual=true
New Loadshape.Shape_180 npts=481 minterval=60 mult=(file=day_20_profile\shape_180.csv) useactual=true
New Loadshape.Shape_181 npts=481 minterval=60 mult=(file=day_20_profile\shape_181.csv) useactual=true
New Loadshape.Shape_182 npts=481 minterval=60 mult=(file=day_20_profile\shape_182.csv) useactual=true
New Loadshape.Shape_183 npts=481 minterval=60 mult=(file=day_20_profile\shape_183.csv) useactual=true
New Loadshape.Shape_184 npts=481 minterval=60 mult=(file=day_20_profile\shape_184.csv) useactual=true
New Loadshape.Shape_185 npts=481 minterval=60 mult=(file=day_20_profile\shape_185.csv) useactual=true
New Loadshape.Shape_186 npts=481 minterval=60 mult=(file=day_20_profile\shape_186.csv) useactual=true
New Loadshape.Shape_187 npts=481 minterval=60 mult=(file=day_20_profile\shape_187.csv) useactual=true
New Loadshape.Shape_188 npts=481 minterval=60 mult=(file=day_20_profile\shape_188.csv) useactual=true
New Loadshape.Shape_189 npts=481 minterval=60 mult=(file=day_20_profile\shape_189.csv) useactual=true
New Loadshape.Shape_190 npts=481 minterval=60 mult=(file=day_20_profile\shape_190.csv) useactual=true
New Loadshape.Shape_191 npts=481 minterval=60 mult=(file=day_20_profile\shape_191.csv) useactual=true
New Loadshape.Shape_192 npts=481 minterval=60 mult=(file=day_20_profile\shape_192.csv) useactual=true
New Loadshape.Shape_193 npts=481 minterval=60 mult=(file=day_20_profile\shape_193.csv) useactual=true
New Loadshape.Shape_194 npts=481 minterval=60 mult=(file=day_20_profile\shape_194.csv) useactual=true
New Loadshape.Shape_195 npts=481 minterval=60 mult=(file=day_20_profile\shape_195.csv) useactual=true
New Loadshape.Shape_196 npts=481 minterval=60 mult=(file=day_20_profile\shape_196.csv) useactual=true
New Loadshape.Shape_197 npts=481 minterval=60 mult=(file=day_20_profile\shape_197.csv) useactual=true
New Loadshape.Shape_198 npts=481 minterval=60 mult=(file=day_20_profile\shape_198.csv) useactual=true
New Loadshape.Shape_199 npts=481 minterval=60 mult=(file=day_20_profile\shape_199.csv) useactual=true
New Loadshape.Shape_200 npts=481 minterval=60 mult=(file=day_20_profile\shape_200.csv) useactual=true
New Loadshape.Shape_201 npts=481 minterval=60 mult=(file=day_20_profile\shape_201.csv) useactual=true
New Loadshape.Shape_202 npts=481 minterval=60 mult=(file=day_20_profile\shape_202.csv) useactual=true
New Loadshape.Shape_203 npts=481 minterval=60 mult=(file=day_20_profile\shape_203.csv) useactual=true
New Loadshape.Shape_204 npts=481 minterval=60 mult=(file=day_20_profile\shape_204.csv) useactual=true
New Loadshape.Shape_205 npts=481 minterval=60 mult=(file=day_20_profile\shape_205.csv) useactual=true
New Loadshape.Shape_206 npts=481 minterval=60 mult=(file=day_20_profile\shape_206.csv) useactual=true
New Loadshape.Shape_207 npts=481 minterval=60 mult=(file=day_20_profile\shape_207.csv) useactual=true
New Loadshape.Shape_208 npts=481 minterval=60 mult=(file=day_20_profile\shape_208.csv) useactual=true
New Loadshape.Shape_209 npts=481 minterval=60 mult=(file=day_20_profile\shape_209.csv) useactual=true
New Loadshape.Shape_210 npts=481 minterval=60 mult=(file=day_20_profile\shape_210.csv) useactual=true
New Loadshape.Shape_211 npts=481 minterval=60 mult=(file=day_20_profile\shape_211.csv) useactual=true
New Loadshape.Shape_212 npts=481 minterval=60 mult=(file=day_20_profile\shape_212.csv) useactual=true
New Loadshape.Shape_213 npts=481 minterval=60 mult=(file=day_20_profile\shape_213.csv) useactual=true
New Loadshape.Shape_214 npts=481 minterval=60 mult=(file=day_20_profile\shape_214.csv) useactual=true
New Loadshape.Shape_215 npts=481 minterval=60 mult=(file=day_20_profile\shape_215.csv) useactual=true
New Loadshape.Shape_216 npts=481 minterval=60 mult=(file=day_20_profile\shape_216.csv) useactual=true
New Loadshape.Shape_217 npts=481 minterval=60 mult=(file=day_20_profile\shape_217.csv) useactual=true
New Loadshape.Shape_218 npts=481 minterval=60 mult=(file=day_20_profile\shape_218.csv) useactual=true
New Loadshape.Shape_219 npts=481 minterval=60 mult=(file=day_20_profile\shape_219.csv) useactual=true
New Loadshape.Shape_220 npts=481 minterval=60 mult=(file=day_20_profile\shape_220.csv) useactual=true
New Loadshape.Shape_221 npts=481 minterval=60 mult=(file=day_20_profile\shape_221.csv) useactual=true
New Loadshape.Shape_222 npts=481 minterval=60 mult=(file=day_20_profile\shape_222.csv) useactual=true
New Loadshape.Shape_223 npts=481 minterval=60 mult=(file=day_20_profile\shape_223.csv) useactual=true
New Loadshape.Shape_224 npts=481 minterval=60 mult=(file=day_20_profile\shape_224.csv) useactual=true
New Loadshape.Shape_225 npts=481 minterval=60 mult=(file=day_20_profile\shape_225.csv) useactual=true
New Loadshape.Shape_226 npts=481 minterval=60 mult=(file=day_20_profile\shape_226.csv) useactual=true
New Loadshape.Shape_227 npts=481 minterval=60 mult=(file=day_20_profile\shape_227.csv) useactual=true
New Loadshape.Shape_228 npts=481 minterval=60 mult=(file=day_20_profile\shape_228.csv) useactual=true
New Loadshape.Shape_229 npts=481 minterval=60 mult=(file=day_20_profile\shape_229.csv) useactual=true
New Loadshape.Shape_230 npts=481 minterval=60 mult=(file=day_20_profile\shape_230.csv) useactual=true
New Loadshape.Shape_231 npts=481 minterval=60 mult=(file=day_20_profile\shape_231.csv) useactual=true
New Loadshape.Shape_232 npts=481 minterval=60 mult=(file=day_20_profile\shape_232.csv) useactual=true
New Loadshape.Shape_233 npts=481 minterval=60 mult=(file=day_20_profile\shape_233.csv) useactual=true
New Loadshape.Shape_234 npts=481 minterval=60 mult=(file=day_20_profile\shape_234.csv) useactual=true
New Loadshape.Shape_235 npts=481 minterval=60 mult=(file=day_20_profile\shape_235.csv) useactual=true
New Loadshape.Shape_236 npts=481 minterval=60 mult=(file=day_20_profile\shape_236.csv) useactual=true
New Loadshape.Shape_237 npts=481 minterval=60 mult=(file=day_20_profile\shape_237.csv) useactual=true
New Loadshape.Shape_238 npts=481 minterval=60 mult=(file=day_20_profile\shape_238.csv) useactual=true
New Loadshape.Shape_239 npts=481 minterval=60 mult=(file=day_20_profile\shape_239.csv) useactual=true
New Loadshape.Shape_240 npts=481 minterval=60 mult=(file=day_20_profile\shape_240.csv) useactual=true
New Loadshape.Shape_241 npts=481 minterval=60 mult=(file=day_20_profile\shape_241.csv) useactual=true
New Loadshape.Shape_242 npts=481 minterval=60 mult=(file=day_20_profile\shape_242.csv) useactual=true
New Loadshape.Shape_243 npts=481 minterval=60 mult=(file=day_20_profile\shape_243.csv) useactual=true
New Loadshape.Shape_244 npts=481 minterval=60 mult=(file=day_20_profile\shape_244.csv) useactual=true
New Loadshape.Shape_245 npts=481 minterval=60 mult=(file=day_20_profile\shape_245.csv) useactual=true
New Loadshape.Shape_246 npts=481 minterval=60 mult=(file=day_20_profile\shape_246.csv) useactual=true
New Loadshape.Shape_247 npts=481 minterval=60 mult=(file=day_20_profile\shape_247.csv) useactual=true
New Loadshape.Shape_248 npts=481 minterval=60 mult=(file=day_20_profile\shape_248.csv) useactual=true
New Loadshape.Shape_249 npts=481 minterval=60 mult=(file=day_20_profile\shape_249.csv) useactual=true
New Loadshape.Shape_250 npts=481 minterval=60 mult=(file=day_20_profile\shape_250.csv) useactual=true
New Loadshape.Shape_251 npts=481 minterval=60 mult=(file=day_20_profile\shape_251.csv) useactual=true
New Loadshape.Shape_252 npts=481 minterval=60 mult=(file=day_20_profile\shape_252.csv) useactual=true
New Loadshape.Shape_253 npts=481 minterval=60 mult=(file=day_20_profile\shape_253.csv) useactual=true
New Loadshape.Shape_254 npts=481 minterval=60 mult=(file=day_20_profile\shape_254.csv) useactual=true
New Loadshape.Shape_255 npts=481 minterval=60 mult=(file=day_20_profile\shape_255.csv) useactual=true
New Loadshape.Shape_256 npts=481 minterval=60 mult=(file=day_20_profile\shape_256.csv) useactual=true
New Loadshape.Shape_257 npts=481 minterval=60 mult=(file=day_20_profile\shape_257.csv) useactual=true
New Loadshape.Shape_258 npts=481 minterval=60 mult=(file=day_20_profile\shape_258.csv) useactual=true
New Loadshape.Shape_259 npts=481 minterval=60 mult=(file=day_20_profile\shape_259.csv) useactual=true
New Loadshape.Shape_260 npts=481 minterval=60 mult=(file=day_20_profile\shape_260.csv) useactual=true
New Loadshape.Shape_261 npts=481 minterval=60 mult=(file=day_20_profile\shape_261.csv) useactual=true
New Loadshape.Shape_262 npts=481 minterval=60 mult=(file=day_20_profile\shape_262.csv) useactual=true
New Loadshape.Shape_263 npts=481 minterval=60 mult=(file=day_20_profile\shape_263.csv) useactual=true
New Loadshape.Shape_264 npts=481 minterval=60 mult=(file=day_20_profile\shape_264.csv) useactual=true
New Loadshape.Shape_265 npts=481 minterval=60 mult=(file=day_20_profile\shape_265.csv) useactual=true
New Loadshape.Shape_266 npts=481 minterval=60 mult=(file=day_20_profile\shape_266.csv) useactual=true
New Loadshape.Shape_267 npts=481 minterval=60 mult=(file=day_20_profile\shape_267.csv) useactual=true
New Loadshape.Shape_268 npts=481 minterval=60 mult=(file=day_20_profile\shape_268.csv) useactual=true
New Loadshape.Shape_269 npts=481 minterval=60 mult=(file=day_20_profile\shape_269.csv) useactual=true
New Loadshape.Shape_270 npts=481 minterval=60 mult=(file=day_20_profile\shape_270.csv) useactual=true
New Loadshape.Shape_271 npts=481 minterval=60 mult=(file=day_20_profile\shape_271.csv) useactual=true
New Loadshape.Shape_272 npts=481 minterval=60 mult=(file=day_20_profile\shape_272.csv) useactual=true
New Loadshape.Shape_273 npts=481 minterval=60 mult=(file=day_20_profile\shape_273.csv) useactual=true
New Loadshape.Shape_274 npts=481 minterval=60 mult=(file=day_20_profile\shape_274.csv) useactual=true
New Loadshape.Shape_275 npts=481 minterval=60 mult=(file=day_20_profile\shape_275.csv) useactual=true
New Loadshape.Shape_276 npts=481 minterval=60 mult=(file=day_20_profile\shape_276.csv) useactual=true
New Loadshape.Shape_277 npts=481 minterval=60 mult=(file=day_20_profile\shape_277.csv) useactual=true
New Loadshape.Shape_278 npts=481 minterval=60 mult=(file=day_20_profile\shape_278.csv) useactual=true
New Loadshape.Shape_279 npts=481 minterval=60 mult=(file=day_20_profile\shape_279.csv) useactual=true
New Loadshape.Shape_280 npts=481 minterval=60 mult=(file=day_20_profile\shape_280.csv) useactual=true
New Loadshape.Shape_281 npts=481 minterval=60 mult=(file=day_20_profile\shape_281.csv) useactual=true
New Loadshape.Shape_282 npts=481 minterval=60 mult=(file=day_20_profile\shape_282.csv) useactual=true
New Loadshape.Shape_283 npts=481 minterval=60 mult=(file=day_20_profile\shape_283.csv) useactual=true
New Loadshape.Shape_284 npts=481 minterval=60 mult=(file=day_20_profile\shape_284.csv) useactual=true
New Loadshape.Shape_285 npts=481 minterval=60 mult=(file=day_20_profile\shape_285.csv) useactual=true
New Loadshape.Shape_286 npts=481 minterval=60 mult=(file=day_20_profile\shape_286.csv) useactual=true
New Loadshape.Shape_287 npts=481 minterval=60 mult=(file=day_20_profile\shape_287.csv) useactual=true
New Loadshape.Shape_288 npts=481 minterval=60 mult=(file=day_20_profile\shape_288.csv) useactual=true
New Loadshape.Shape_289 npts=481 minterval=60 mult=(file=day_20_profile\shape_289.csv) useactual=true
New Loadshape.Shape_290 npts=481 minterval=60 mult=(file=day_20_profile\shape_290.csv) useactual=true
New Loadshape.Shape_291 npts=481 minterval=60 mult=(file=day_20_profile\shape_291.csv) useactual=true
New Loadshape.Shape_292 npts=481 minterval=60 mult=(file=day_20_profile\shape_292.csv) useactual=true
New Loadshape.Shape_293 npts=481 minterval=60 mult=(file=day_20_profile\shape_293.csv) useactual=true
New Loadshape.Shape_294 npts=481 minterval=60 mult=(file=day_20_profile\shape_294.csv) useactual=true
New Loadshape.Shape_295 npts=481 minterval=60 mult=(file=day_20_profile\shape_295.csv) useactual=true
New Loadshape.Shape_296 npts=481 minterval=60 mult=(file=day_20_profile\shape_296.csv) useactual=true